<?xml version="1.0" encoding="UTF-8"?>

<!-- generated on Sat Jun 21 23:34:31 2014 by SUMO polyconvert Version dev-SVN-r15797
<?xml version="1.0" encoding="UTF-8"?>

<configuration xmlns:xsi="http://www.w3.org/2001/XMLSchema-instance" xsi:noNamespaceSchemaLocation="http://sumo-sim.org/xsd/polyconvertConfiguration.xsd">

    <input>
        <net-file value="Beijing.net.xml"/>
        <osm-files value="Beijing.osm"/>
    </input>

    <output>
        <output-file value="Beijing.poly.xml"/>
    </output>

    <processing>
        <ignore-errors value="true"/>
    </processing>

</configuration>
-->

<shapes>
    <poly id="104345641" type="unknown" color="51,128,255" fill="1" layer="-1.00" shape="3350.36,6605.52 3351.47,6587.52 3419.07,6591.66 3417.96,6609.66 3350.36,6605.52"/>
    <poly id="105276037" type="unknown" color="51,128,255" fill="1" layer="-1.00" shape="4136.03,7751.90 4162.81,7760.81 4211.24,7773.37 4346.43,7788.29 4354.38,7729.95 4318.23,7726.68 4312.56,7717.35 4312.72,7704.43 4251.48,7703.34 4246.52,7708.35 4196.21,7707.10 4197.85,7652.35 4149.49,7648.42 4136.03,7751.90"/>
    <poly id="105276039" type="unknown" color="51,128,255" fill="1" layer="-1.00" shape="4793.53,6617.95 4844.43,6618.39 4844.75,6581.18 4793.86,6580.74 4793.53,6617.95"/>
    <poly id="105276040" type="unknown" color="51,128,255" fill="1" layer="-1.00" shape="4858.02,6905.63 4977.20,6908.25 4977.33,6902.67 4978.22,6854.23 4971.30,6854.11 4855.58,6851.59 4854.47,6902.50 4854.39,6905.54 4858.02,6905.63"/>
    <poly id="105430048" type="unknown" color="51,128,255" fill="1" layer="-1.00" shape="5324.52,7725.03 5323.91,7644.76 5427.25,7647.39 5426.14,7726.83 5324.52,7725.03"/>
    <poly id="106617834" type="unknown" color="51,128,255" fill="1" layer="-1.00" shape="7372.77,2992.20 7376.13,2888.08 7442.54,2890.20 7439.17,2994.32 7372.77,2992.20"/>
    <poly id="106620125" type="unknown" color="51,128,255" fill="1" layer="-1.00" shape="5935.76,4658.50 5935.13,4551.58 6004.89,4551.17 6005.51,4658.09 5935.76,4658.50"/>
    <poly id="106622977" type="unknown" color="51,128,255" fill="1" layer="-1.00" shape="6235.01,6897.54 6237.20,6792.09 6306.71,6793.52 6304.52,6898.96 6235.01,6897.54"/>
    <poly id="106623205" type="unknown" color="51,128,255" fill="1" layer="-1.00" shape="3229.12,2519.59 3233.42,2388.21 3309.90,2392.76 3304.95,2520.78 3229.12,2519.59"/>
    <poly id="106623206" type="unknown" color="51,128,255" fill="1" layer="-1.00" shape="3331.41,2360.48 3332.99,2324.44 3243.33,2320.56 3241.49,2362.54 3302.29,2365.18 3302.55,2359.23 3331.41,2360.48"/>
    <poly id="107039532" type="unknown" color="51,128,255" fill="1" layer="-1.00" shape="4068.56,3083.34 4131.05,3081.82 4130.72,3068.39 4068.23,3069.93 4068.56,3083.34"/>
    <poly id="107039533" type="unknown" color="51,128,255" fill="1" layer="-1.00" shape="3945.77,3024.47 4013.73,3032.96 4015.62,3018.03 3947.65,3009.53 3945.77,3024.47"/>
    <poly id="107039534" type="unknown" color="51,128,255" fill="1" layer="-1.00" shape="4070.70,3170.19 4071.37,3203.23 4085.87,3202.94 4085.20,3169.89 4070.70,3170.19"/>
    <poly id="107039535" type="unknown" color="51,128,255" fill="1" layer="-1.00" shape="4036.85,2950.98 4037.14,2934.58 4051.87,2936.11 4051.48,2940.21 4164.42,2947.81 4164.38,2942.89 4176.78,2943.89 4169.92,3008.41 4154.57,3006.88 4157.19,2965.35 4161.61,2965.58 4161.16,2962.04 4036.85,2950.98"/>
    <poly id="107039536" type="unknown" color="51,128,255" fill="1" layer="-1.00" shape="4180.86,2909.99 4182.26,2899.59 4183.85,2898.29 4186.38,2898.06 4188.37,2898.98 4188.82,2900.84 4187.63,2910.29 4180.86,2909.99"/>
    <poly id="107039537" type="unknown" color="51,128,255" fill="1" layer="-1.00" shape="3248.39,3038.13 3249.05,2987.60 3275.33,2988.41 3274.93,3038.26 3248.39,3038.13"/>
    <poly id="107039538" type="unknown" color="51,128,255" fill="1" layer="-1.00" shape="4083.67,3053.18 4116.68,3055.11 4117.24,3045.77 4084.22,3043.84 4083.67,3053.18"/>
    <poly id="107039540" type="unknown" color="51,128,255" fill="1" layer="-1.00" shape="4053.85,3138.37 4053.73,3123.07 4062.55,3122.73 4062.48,3112.61 4093.38,3112.11 4093.88,3151.43 4063.41,3152.22 4063.10,3138.02 4053.85,3138.37"/>
    <poly id="107039541" type="unknown" color="51,128,255" fill="1" layer="-1.00" shape="3935.01,3050.83 3947.96,3051.38 3948.43,3040.49 3935.48,3039.93 3935.01,3050.83"/>
    <poly id="107039542" type="unknown" color="51,128,255" fill="1" layer="-1.00" shape="3980.52,3086.75 3980.63,3075.01 4061.55,3074.38 4061.63,3084.76 3980.52,3086.75"/>
    <poly id="107039543" type="unknown" color="51,128,255" fill="1" layer="-1.00" shape="4198.23,2764.55 4205.42,2765.11 4206.34,2753.29 4199.15,2752.73 4198.23,2764.55"/>
    <poly id="107039544" type="unknown" color="51,128,255" fill="1" layer="-1.00" shape="4031.20,3036.66 4117.44,3043.09 4118.65,3027.07 4032.41,3020.64 4031.20,3036.66"/>
    <poly id="107039545" type="unknown" color="51,128,255" fill="1" layer="-1.00" shape="4117.43,3237.85 4149.64,3244.44 4151.94,3242.51 4162.25,3135.08 4176.57,3137.16 4167.51,3245.67 4165.86,3249.50 4160.87,3256.10 4158.99,3257.75 4152.29,3261.08 4114.18,3252.63 4117.43,3237.85"/>
    <poly id="107039546" type="unknown" color="51,128,255" fill="1" layer="-1.00" shape="4046.00,2894.09 4046.55,2883.15 4063.59,2884.40 4065.48,2855.97 4050.74,2854.17 4051.70,2842.14 4074.84,2844.43 4073.51,2861.92 4107.58,2864.93 4110.89,2829.94 4124.77,2831.20 4116.60,2917.85 4103.14,2916.59 4106.44,2879.69 4073.41,2877.22 4071.87,2895.52 4046.00,2894.09"/>
    <poly id="107039547" type="unknown" color="51,128,255" fill="1" layer="-1.00" shape="4097.77,3247.28 4107.36,3236.55 4085.51,3210.23 4076.76,3220.67 4097.77,3247.28"/>
    <poly id="107039548" type="unknown" color="51,128,255" fill="1" layer="-1.00" shape="3929.15,3022.95 3941.99,3024.22 3942.92,3014.86 3930.09,3013.59 3929.15,3022.95"/>
    <poly id="107039549" type="unknown" color="51,128,255" fill="1" layer="-1.00" shape="3988.32,3051.95 4009.34,3052.44 4009.68,3038.03 3988.66,3037.54 3988.32,3051.95"/>
    <poly id="107039550" type="unknown" color="51,128,255" fill="1" layer="-1.00" shape="4059.34,2796.47 4067.12,2796.68 4066.13,2804.07 4092.00,2805.50 4090.79,2812.62 4096.89,2812.85 4097.28,2809.29 4128.19,2812.05 4129.63,2807.13 4132.79,2807.92 4132.01,2815.85 4156.40,2817.03 4160.23,2795.97 4180.85,2797.72 4182.60,2780.23 4150.42,2778.02 4149.42,2783.76 4144.79,2783.52 4146.01,2777.23 4109.62,2774.78 4107.78,2780.53 4102.72,2779.47 4103.94,2773.73 4069.66,2770.99 4067.27,2789.03 4060.96,2788.26 4059.34,2796.47"/>
    <poly id="107039551" type="unknown" color="51,128,255" fill="1" layer="-1.00" shape="3933.23,2995.12 3957.81,2998.22 3958.92,2990.99 3974.07,2992.18 3973.28,2998.53 3997.35,3001.62 3997.95,2992.66 4010.23,2993.44 4010.67,2984.48 4004.45,2984.53 4005.22,2976.22 3988.23,2975.03 3987.59,2979.19 3948.22,2976.00 3948.85,2970.97 3935.90,2970.85 3933.23,2995.12"/>
    <poly id="107039552" type="unknown" color="51,128,255" fill="1" layer="-1.00" shape="4197.32,2782.86 4207.11,2783.61 4208.26,2768.86 4198.46,2768.10 4197.32,2782.86"/>
    <poly id="107039553" type="unknown" color="51,128,255" fill="1" layer="-1.00" shape="4120.77,3040.20 4121.76,3004.68 4169.29,3008.69 4168.09,3043.11 4120.77,3040.20"/>
    <poly id="107039554" type="unknown" color="51,128,255" fill="1" layer="-1.00" shape="3959.55,3050.86 3984.45,3051.54 3984.82,3038.00 3959.93,3037.33 3959.55,3050.86"/>
    <poly id="107039555" type="unknown" color="51,128,255" fill="1" layer="-1.00" shape="4174.57,3080.30 4183.72,3081.06 4179.85,3121.18 4165.34,3119.85 4169.02,3082.78 4149.86,3080.94 4150.98,3066.66 4175.52,3068.18 4174.57,3080.30"/>
    <poly id="107039556" type="unknown" color="51,128,255" fill="1" layer="-1.00" shape="3282.16,3037.70 3282.81,2987.16 3309.09,2987.98 3308.70,3037.83 3282.16,3037.70"/>
    <poly id="107039557" type="unknown" color="51,128,255" fill="1" layer="-1.00" shape="4025.75,3011.16 4029.30,2952.94 4099.14,2960.60 4093.69,3017.73 4025.75,3011.16"/>
    <poly id="107039558" type="unknown" color="51,128,255" fill="1" layer="-1.00" shape="4095.79,3017.71 4101.67,2960.58 4122.91,2963.15 4117.88,3019.73 4095.79,3017.71"/>
    <poly id="107039559" type="unknown" color="51,128,255" fill="1" layer="-1.00" shape="4184.21,2866.71 4185.60,2868.71 4188.31,2869.12 4191.00,2867.88 4191.24,2857.00 4185.02,2857.11 4184.21,2866.71"/>
    <poly id="107050552" type="unknown" color="51,128,255" fill="1" layer="-1.00" shape="4208.01,3363.36 4244.92,3366.27 4248.74,3363.96 4250.78,3355.76 4252.98,3277.84 4220.11,3276.28 4208.01,3363.36"/>
    <poly id="107050556" type="unknown" color="51,128,255" fill="1" layer="-1.00" shape="3954.82,2939.20 3943.89,2938.04 3942.31,2956.71 3954.19,2957.62 3953.84,2961.61 3991.21,2965.05 3991.56,2961.06 4004.02,2961.96 4005.59,2943.28 3992.95,2941.89 3992.45,2951.85 3953.93,2948.41 3954.82,2939.20"/>
    <poly id="107050560" type="unknown" color="51,128,255" fill="1" layer="-1.00" shape="4022.93,2915.47 4032.43,2818.90 3777.99,2791.75 3768.44,2889.04 4022.93,2915.47"/>
    <poly id="107050565" type="unknown" color="51,128,255" fill="1" layer="-1.00" shape="4231.75,3168.36 4250.47,3169.80 4250.13,3240.22 4274.08,3241.17 4271.46,3264.82 4223.73,3261.78 4231.75,3168.36"/>
    <poly id="107050567" type="unknown" color="51,128,255" fill="1" layer="-1.00" shape="4238.16,3081.25 4260.19,3083.58 4267.42,2954.29 4250.10,2952.38 4238.16,3081.25"/>
    <poly id="107050568" type="unknown" color="51,128,255" fill="1" layer="-1.00" shape="4226.32,3537.12 4248.45,3459.95 4318.29,3458.97 4310.98,3546.24 4245.23,3541.29 4226.32,3537.12"/>
    <poly id="107050574" type="unknown" color="51,128,255" fill="1" layer="-1.00" shape="4176.68,3503.74 4209.83,3520.07 4214.21,3520.94 4218.89,3516.36 4233.43,3452.20 4244.63,3453.25 4247.73,3447.99 4249.83,3380.07 4247.54,3377.81 4208.38,3376.52 4204.56,3379.96 4176.68,3503.74"/>
    <poly id="107050575" type="unknown" color="51,128,255" fill="1" layer="-1.00" shape="4231.42,3164.41 4253.10,3165.83 4255.01,3162.19 4259.76,3099.00 4239.12,3096.89 4231.42,3164.41"/>
    <poly id="107087114" type="unknown" color="51,128,255" fill="1" layer="-1.00" shape="3452.35,2738.45 3452.70,2703.25 3466.24,2702.86 3466.27,2706.93 3471.48,2706.89 3471.52,2705.38 3517.00,2705.64 3517.01,2708.04 3522.13,2708.00 3522.17,2704.36 3536.17,2704.34 3536.11,2740.19 3521.70,2740.13 3522.08,2718.56 3516.75,2718.42 3516.84,2720.29 3471.76,2719.57 3471.75,2717.26 3466.42,2717.30 3466.39,2738.87 3452.35,2738.45"/>
    <poly id="107087115" type="unknown" color="51,128,255" fill="1" layer="-1.00" shape="3635.59,3021.99 3693.33,3022.41 3693.43,3010.28 3635.68,3009.86 3635.59,3021.99"/>
    <poly id="107087117" type="unknown" color="51,128,255" fill="1" layer="-1.00" shape="3349.87,2877.12 3349.98,2864.93 3260.01,2864.11 3259.89,2876.29 3349.87,2877.12"/>
    <poly id="107087120" type="unknown" color="51,128,255" fill="1" layer="-1.00" shape="3378.44,3006.12 3426.38,3006.20 3426.53,2984.15 3409.53,2984.07 3409.78,2975.42 3395.38,2975.47 3395.34,2984.02 3379.12,2983.94 3378.44,3006.12"/>
    <poly id="107087122" type="unknown" color="51,128,255" fill="1" layer="-1.00" shape="3207.35,2657.51 3269.69,2657.89 3269.81,2640.57 3207.45,2640.19 3207.35,2657.51"/>
    <poly id="107087124" type="unknown" color="51,128,255" fill="1" layer="-1.00" shape="3515.03,3033.60 3515.38,3026.02 3489.04,3025.58 3488.85,3033.15 3515.03,3033.60"/>
    <poly id="107087125" type="unknown" color="51,128,255" fill="1" layer="-1.00" shape="3360.62,2682.55 3360.82,2641.93 3442.61,2641.98 3442.68,2651.12 3433.04,2650.85 3433.03,2684.02 3360.62,2682.55"/>
    <poly id="107087127" type="unknown" color="51,128,255" fill="1" layer="-1.00" shape="3257.61,2787.27 3319.26,2787.91 3319.40,2773.70 3257.75,2773.06 3257.61,2787.27"/>
    <poly id="107087132" type="unknown" color="51,128,255" fill="1" layer="-1.00" shape="3355.42,3048.54 3448.22,3049.88 3448.51,3033.10 3355.92,3031.75 3355.42,3048.54"/>
    <poly id="107087133" type="unknown" color="51,128,255" fill="1" layer="-1.00" shape="3294.16,2610.49 3340.67,2610.56 3340.69,2597.34 3294.18,2597.27 3294.16,2610.49"/>
    <poly id="107087136" type="unknown" color="51,128,255" fill="1" layer="-1.00" shape="3186.77,2668.72 3204.34,2668.83 3204.53,2638.03 3186.96,2637.93 3186.77,2668.72"/>
    <poly id="107087137" type="unknown" color="51,128,255" fill="1" layer="-1.00" shape="3878.62,3038.79 3907.18,3041.28 3908.04,3031.54 3879.47,3029.05 3878.62,3038.79"/>
    <poly id="107087140" type="unknown" color="51,128,255" fill="1" layer="-1.00" shape="3701.27,2679.32 3693.96,2678.73 3694.47,2681.33 3692.84,2685.24 3689.86,2688.08 3685.37,2689.41 3681.86,2689.01 3678.01,2687.08 3675.16,2684.07 3673.80,2681.49 3673.61,2677.37 3674.09,2674.55 3676.39,2670.42 3679.21,2669.09 3679.51,2664.76 3676.68,2664.78 3676.88,2626.44 3698.72,2626.06 3698.01,2663.32 3701.50,2663.29 3701.27,2679.32"/>
    <poly id="107087144" type="unknown" color="51,128,255" fill="1" layer="-1.00" shape="3872.74,2969.73 3908.39,2973.43 3909.55,2962.47 3873.90,2958.76 3872.74,2969.73"/>
    <poly id="107087146" type="unknown" color="51,128,255" fill="1" layer="-1.00" shape="3245.28,2904.47 3259.66,2904.50 3259.76,2863.89 3245.38,2863.85 3245.28,2904.47"/>
    <poly id="107087147" type="unknown" color="51,128,255" fill="1" layer="-1.00" shape="3347.38,2749.62 3258.20,2748.72 3258.31,2762.80 3347.69,2762.88 3347.38,2749.62"/>
    <poly id="107087151" type="unknown" color="51,128,255" fill="1" layer="-1.00" shape="3951.43,2617.28 3951.36,2608.34 3954.89,2608.31 3954.84,2601.82 4051.71,2597.82 4052.25,2614.07 3951.43,2617.28"/>
    <poly id="107087153" type="unknown" color="51,128,255" fill="1" layer="-1.00" shape="3517.68,3032.49 3532.04,3032.94 3533.50,2985.49 3519.15,2985.05 3517.68,3032.49"/>
    <poly id="107087155" type="unknown" color="51,128,255" fill="1" layer="-1.00" shape="3397.13,2918.87 3421.30,2918.80 3421.18,2877.38 3397.01,2877.45 3397.13,2918.87"/>
    <poly id="107087156" type="unknown" color="51,128,255" fill="1" layer="-1.00" shape="3488.27,3001.32 3517.75,3001.81 3518.00,2987.00 3488.53,2986.51 3488.27,3001.32"/>
    <poly id="107087158" type="unknown" color="51,128,255" fill="1" layer="-1.00" shape="3472.34,3031.34 3486.68,3031.57 3487.49,2984.57 3473.14,2984.32 3472.34,3031.34"/>
    <poly id="107087160" type="unknown" color="51,128,255" fill="1" layer="-1.00" shape="3431.66,3017.63 3450.39,3018.15 3451.56,2976.42 3432.83,2975.90 3431.66,3017.63"/>
    <poly id="107087163" type="unknown" color="51,128,255" fill="1" layer="-1.00" shape="3274.44,2666.95 3290.60,2666.61 3290.01,2639.13 3273.85,2639.47 3274.44,2666.95"/>
    <poly id="107087164" type="unknown" color="51,128,255" fill="1" layer="-1.00" shape="3736.19,2645.12 3736.13,2638.35 3735.45,2638.35 3736.00,2615.91 3769.13,2616.73 3768.84,2639.35 3742.04,2639.74 3742.08,2644.76 3736.19,2645.12"/>
    <poly id="107087166" type="unknown" color="51,128,255" fill="1" layer="-1.00" shape="4147.57,2736.02 4165.08,2737.49 4165.45,2731.26 4148.35,2729.79 4147.57,2736.02"/>
    <poly id="107087167" type="unknown" color="51,128,255" fill="1" layer="-1.00" shape="3723.28,2605.89 3676.78,2606.25 3676.93,2625.96 3723.43,2625.61 3723.28,2605.89"/>
    <poly id="107087170" type="unknown" color="51,128,255" fill="1" layer="-1.00" shape="4179.67,2717.36 4196.08,2719.27 4197.85,2704.19 4181.43,2702.29 4179.67,2717.36"/>
    <poly id="107087171" type="unknown" color="51,128,255" fill="1" layer="-1.00" shape="3877.32,3049.60 3887.19,3049.70 3887.28,3041.00 3877.41,3040.90 3877.32,3049.60"/>
    <poly id="107087172" type="unknown" color="51,128,255" fill="1" layer="-1.00" shape="4139.13,2695.48 4150.59,2695.93 4152.67,2643.75 4141.22,2643.29 4139.13,2695.48"/>
    <poly id="107087176" type="unknown" color="51,128,255" fill="1" layer="-1.00" shape="3360.16,2925.40 3360.32,2946.25 3372.61,2946.15 3372.45,2925.31 3360.16,2925.40"/>
    <poly id="107087178" type="unknown" color="51,128,255" fill="1" layer="-1.00" shape="3825.93,2964.92 3826.39,2958.27 3824.51,2958.17 3824.88,2950.62 3865.37,2954.53 3864.53,2967.62 3859.31,2966.66 3859.07,2968.22 3825.93,2964.92"/>
    <poly id="107087180" type="unknown" color="51,128,255" fill="1" layer="-1.00" shape="3568.66,2959.24 3584.42,2959.55 3584.70,2931.21 3568.97,2930.81 3568.66,2959.24"/>
    <poly id="107087181" type="unknown" color="51,128,255" fill="1" layer="-1.00" shape="3417.33,2737.54 3430.82,2737.35 3431.25,2709.87 3417.65,2709.99 3417.33,2737.54"/>
    <poly id="107087184" type="unknown" color="51,128,255" fill="1" layer="-1.00" shape="3360.01,2801.54 3375.77,2801.85 3376.05,2773.51 3360.31,2773.13 3360.01,2801.54"/>
    <poly id="107087185" type="unknown" color="51,128,255" fill="1" layer="-1.00" shape="4067.85,2610.97 4132.84,2609.12 4132.38,2592.91 4067.38,2594.76 4067.85,2610.97"/>
    <poly id="107087189" type="unknown" color="51,128,255" fill="1" layer="-1.00" shape="4147.04,2861.92 4150.70,2830.41 4179.37,2833.25 4176.72,2862.70 4173.10,2865.11 4147.04,2861.92"/>
    <poly id="107087190" type="unknown" color="51,128,255" fill="1" layer="-1.00" shape="4155.82,2752.74 4161.07,2753.63 4162.26,2746.58 4157.02,2745.70 4155.82,2752.74"/>
    <poly id="107087191" type="unknown" color="51,128,255" fill="1" layer="-1.00" shape="3264.39,2833.13 3275.20,2833.39 3275.32,2831.84 3283.32,2831.94 3283.20,2833.85 3283.62,2835.58 3284.96,2836.61 3286.69,2836.77 3288.42,2836.41 3289.48,2834.85 3291.48,2835.00 3291.52,2839.85 3323.91,2840.33 3323.87,2833.93 3325.24,2833.91 3326.24,2836.18 3327.07,2837.03 3328.49,2837.23 3329.80,2837.08 3330.77,2836.00 3331.48,2834.58 3331.51,2832.67 3331.01,2831.88 3333.53,2832.01 3338.06,2831.97 3338.07,2833.10 3348.99,2832.89 3349.22,2819.96 3327.26,2819.70 3327.30,2818.59 3287.14,2817.84 3287.23,2819.79 3264.53,2819.92 3264.39,2833.13"/>
    <poly id="107087194" type="unknown" color="51,128,255" fill="1" layer="-1.00" shape="4071.92,2728.68 4088.60,2729.91 4091.61,2689.39 4074.92,2688.16 4071.92,2728.68"/>
    <poly id="107087196" type="unknown" color="51,128,255" fill="1" layer="-1.00" shape="3812.85,3022.24 3896.46,3028.91 3897.73,3013.11 3814.12,3006.44 3812.85,3022.24"/>
    <poly id="107087197" type="unknown" color="51,128,255" fill="1" layer="-1.00" shape="3841.00,3043.65 3857.01,3043.87 3857.17,3032.60 3841.16,3032.38 3841.00,3043.65"/>
    <poly id="107087200" type="unknown" color="51,128,255" fill="1" layer="-1.00" shape="3715.74,3022.40 3694.74,3021.59 3695.34,2978.23 3716.59,2978.40 3716.24,2987.93 3700.79,2987.61 3700.51,2996.59 3714.77,2996.59 3714.84,3005.35 3701.77,3005.02 3701.58,3013.33 3715.76,3013.67 3715.74,3022.40"/>
    <poly id="107087201" type="unknown" color="51,128,255" fill="1" layer="-1.00" shape="3465.80,2961.64 3512.76,2962.39 3512.98,2948.53 3466.03,2947.77 3465.80,2961.64"/>
    <poly id="107087202" type="unknown" color="51,128,255" fill="1" layer="-1.00" shape="3361.10,2908.45 3373.77,2908.69 3374.25,2884.08 3361.58,2883.84 3361.10,2908.45"/>
    <poly id="107087204" type="unknown" color="51,128,255" fill="1" layer="-1.00" shape="4184.81,2734.55 4198.35,2735.59 4199.60,2719.43 4186.05,2718.39 4184.81,2734.55"/>
    <poly id="107087205" type="unknown" color="51,128,255" fill="1" layer="-1.00" shape="3460.17,2885.61 3460.75,2855.47 3456.40,2848.14 3454.51,2842.56 3453.95,2840.87 3454.13,2819.41 3456.28,2814.15 3458.42,2809.70 3461.19,2806.04 3461.60,2759.29 3479.93,2759.68 3477.40,2755.37 3485.73,2754.49 3495.93,2754.15 3510.52,2754.03 3517.40,2754.25 3526.99,2755.26 3529.14,2756.09 3526.99,2760.27 3549.79,2760.48 3557.36,2762.78 3557.31,2791.21 3553.03,2789.45 3552.90,2799.70 3557.17,2800.50 3556.55,2858.59 3551.75,2857.28 3552.21,2863.22 3556.40,2865.36 3556.38,2889.18 3535.52,2887.73 3534.79,2899.64 3511.23,2898.47 3511.36,2887.10 3490.92,2886.17 3490.19,2898.37 3467.89,2897.19 3468.62,2885.26 3460.17,2885.61"/>
    <poly id="107087208" type="unknown" color="51,128,255" fill="1" layer="-1.00" shape="4130.99,2721.26 4147.96,2722.75 4148.73,2714.07 4131.76,2712.59 4130.99,2721.26"/>
    <poly id="107087209" type="unknown" color="51,128,255" fill="1" layer="-1.00" shape="3632.84,3048.14 3695.34,3048.41 3695.46,3032.04 3632.95,3031.66 3632.84,3048.14"/>
    <poly id="107087211" type="unknown" color="51,128,255" fill="1" layer="-1.00" shape="3895.51,2990.46 3908.16,2992.10 3910.04,2977.72 3897.39,2976.07 3895.51,2990.46"/>
    <poly id="107087213" type="unknown" color="51,128,255" fill="1" layer="-1.00" shape="3422.24,2919.56 3446.41,2919.50 3446.29,2878.07 3422.13,2878.14 3422.24,2919.56"/>
    <poly id="107087214" type="unknown" color="51,128,255" fill="1" layer="-1.00" shape="3586.49,2959.53 3602.26,2959.85 3602.54,2931.51 3586.80,2931.11 3586.49,2959.53"/>
    <poly id="107087216" type="unknown" color="51,128,255" fill="1" layer="-1.00" shape="4149.56,2629.94 4187.86,2631.68 4189.28,2600.72 4150.98,2598.98 4149.56,2629.94"/>
    <poly id="107087218" type="unknown" color="51,128,255" fill="1" layer="-1.00" shape="4140.25,2927.63 4168.92,2930.79 4172.14,2901.85 4170.22,2897.34 4143.18,2895.31 4140.25,2927.63"/>
    <poly id="107087219" type="unknown" color="51,128,255" fill="1" layer="-1.00" shape="4149.17,2727.89 4165.85,2729.11 4168.01,2699.96 4151.33,2698.73 4149.17,2727.89"/>
    <poly id="107087221" type="unknown" color="51,128,255" fill="1" layer="-1.00" shape="3684.06,2955.93 3684.33,2947.74 3682.19,2947.76 3686.56,2904.76 3694.55,2904.55 3694.62,2899.70 3699.29,2900.19 3698.59,2914.10 3690.05,2914.17 3687.04,2938.10 3695.83,2938.70 3694.45,2956.46 3684.06,2955.93"/>
    <poly id="107087225" type="unknown" color="51,128,255" fill="1" layer="-1.00" shape="3245.17,2959.71 3257.03,2959.75 3257.23,2905.60 3245.37,2905.56 3245.17,2959.71"/>
    <poly id="107087227" type="unknown" color="51,128,255" fill="1" layer="-1.00" shape="3554.50,3029.83 3607.37,3030.30 3607.64,3000.41 3554.77,2999.94 3554.50,3029.83"/>
    <poly id="107087228" type="unknown" color="51,128,255" fill="1" layer="-1.00" shape="3449.51,2625.89 3449.62,2600.69 3465.60,2601.09 3465.65,2599.05 3492.70,2599.73 3492.80,2603.28 3497.71,2603.24 3497.68,2600.14 3518.65,2599.97 3518.72,2601.82 3541.33,2601.77 3541.43,2627.42 3520.73,2627.31 3521.05,2613.16 3524.67,2613.14 3524.75,2610.08 3519.95,2609.98 3520.05,2619.54 3470.25,2618.99 3470.31,2609.67 3465.73,2609.62 3465.82,2611.74 3469.03,2611.71 3469.08,2626.53 3449.51,2625.89"/>
    <poly id="107087231" type="unknown" color="51,128,255" fill="1" layer="-1.00" shape="3636.61,2998.76 3690.62,2999.38 3690.78,2985.33 3636.78,2984.72 3636.61,2998.76"/>
    <poly id="107087232" type="unknown" color="51,128,255" fill="1" layer="-1.00" shape="3456.46,3046.40 3537.24,3048.07 3537.31,3034.85 3457.03,3034.48 3456.46,3046.40"/>
    <poly id="107087234" type="unknown" color="51,128,255" fill="1" layer="-1.00" shape="3346.34,2621.40 3357.80,2621.31 3357.61,2596.62 3346.15,2596.71 3346.34,2621.40"/>
    <poly id="107087236" type="unknown" color="51,128,255" fill="1" layer="-1.00" shape="3352.50,3017.08 3371.00,3017.33 3371.52,2976.97 3353.02,2976.74 3352.50,3017.08"/>
    <poly id="107087237" type="unknown" color="51,128,255" fill="1" layer="-1.00" shape="3684.96,2849.53 3681.99,2841.16 3681.24,2832.18 3682.20,2824.63 3684.29,2818.07 3685.48,2815.96 3688.27,2812.16 3696.32,2814.80 3703.30,2817.35 3706.09,2818.95 3718.14,2822.80 3723.09,2824.24 3725.51,2824.02 3725.19,2842.40 3713.25,2841.85 3696.27,2844.41 3684.96,2849.53"/>
    <poly id="107087239" type="unknown" color="51,128,255" fill="1" layer="-1.00" shape="3414.66,2767.62 3423.52,2767.63 3423.73,2749.76 3414.89,2749.74 3414.66,2767.62"/>
    <poly id="107087241" type="unknown" color="51,128,255" fill="1" layer="-1.00" shape="3767.35,2994.61 3810.96,2997.60 3811.82,2985.09 3768.22,2982.09 3767.35,2994.61"/>
    <poly id="107087242" type="unknown" color="51,128,255" fill="1" layer="-1.00" shape="3695.40,3047.32 3716.40,3047.96 3716.73,3037.56 3695.71,3036.92 3695.40,3047.32"/>
    <poly id="107087243" type="unknown" color="51,128,255" fill="1" layer="-1.00" shape="4067.07,2673.28 4067.58,2657.57 4079.45,2656.67 4079.48,2661.28 4117.42,2663.15 4119.17,2620.36 4135.23,2620.78 4133.98,2676.83 4067.07,2673.28"/>
    <poly id="107087246" type="unknown" color="51,128,255" fill="1" layer="-1.00" shape="3413.03,2886.68 3412.96,2857.22 3440.47,2857.44 3440.42,2858.96 3445.55,2859.05 3445.80,2879.02 3440.90,2878.91 3440.85,2887.09 3413.03,2886.68"/>
    <poly id="107087247" type="unknown" color="51,128,255" fill="1" layer="-1.00" shape="3809.05,2971.59 3817.43,2972.17 3818.90,2951.01 3810.52,2950.43 3809.05,2971.59"/>
    <poly id="107087249" type="unknown" color="51,128,255" fill="1" layer="-1.00" shape="3649.29,2689.28 3649.16,2673.38 3583.77,2671.85 3568.80,2656.06 3568.86,2629.66 3553.24,2629.44 3553.50,2663.63 3576.35,2688.49 3649.29,2689.28"/>
    <poly id="107087253" type="unknown" color="51,128,255" fill="1" layer="-1.00" shape="3361.59,2834.29 3374.26,2834.52 3374.74,2809.91 3362.07,2809.68 3361.59,2834.29"/>
    <poly id="107087254" type="unknown" color="51,128,255" fill="1" layer="-1.00" shape="3553.71,2993.01 3620.86,2994.65 3621.23,2979.28 3554.10,2977.63 3553.71,2993.01"/>
    <poly id="107087255" type="unknown" color="51,128,255" fill="1" layer="-1.00" shape="3257.27,2918.99 3345.99,2919.69 3346.09,2906.42 3257.37,2905.73 3257.27,2918.99"/>
    <poly id="107087259" type="unknown" color="51,128,255" fill="1" layer="-1.00" shape="3749.81,2860.94 3738.06,2851.48 3739.83,2821.84 3755.24,2813.92 3754.37,2810.49 3753.83,2808.38 3753.04,2805.28 3755.13,2805.27 3756.76,2804.28 3757.08,2801.88 3756.73,2799.75 3755.07,2798.25 3753.37,2798.17 3752.07,2798.98 3751.13,2801.03 3750.87,2802.37 3749.22,2799.45 3738.06,2805.57 3731.73,2808.46 3727.24,2809.73 3724.23,2809.75 3720.13,2808.47 3716.43,2806.36 3711.39,2803.35 3701.19,2794.84 3699.39,2796.93 3699.43,2794.94 3698.98,2793.52 3697.89,2792.54 3696.40,2792.05 3694.44,2792.14 3693.25,2793.78 3693.05,2795.62 3693.49,2796.91 3694.76,2797.88 3695.68,2798.44 3692.83,2802.16 3694.69,2803.49 3692.80,2806.41 3707.52,2817.17 3711.31,2819.76 3716.52,2821.57 3720.33,2822.62 3722.78,2823.13 3726.13,2823.19 3725.68,2844.31 3723.29,2843.97 3720.83,2843.26 3717.38,2843.45 3712.80,2844.05 3707.88,2845.48 3697.46,2850.00 3687.68,2854.50 3689.51,2856.85 3687.39,2858.95 3689.55,2861.84 3687.56,2862.38 3686.75,2863.10 3686.21,2864.26 3686.42,2865.68 3687.12,2867.45 3688.22,2868.24 3689.58,2868.50 3691.22,2867.86 3691.68,2866.26 3691.81,2864.57 3693.61,2867.93 3706.47,2862.15 3711.77,2859.53 3713.61,2858.81 3716.75,2858.17 3720.70,2858.23 3723.79,2859.26 3732.64,2865.32 3741.70,2871.81 3743.46,2869.86 3743.89,2871.62 3744.72,2872.85 3745.89,2873.73 3747.25,2873.99 3748.81,2873.44 3750.10,2871.92 3750.23,2870.60 3749.80,2868.92 3748.43,2868.04 3747.00,2867.79 3749.84,2864.48 3748.05,2863.07 3749.81,2860.94"/>
    <poly id="107087265" type="unknown" color="51,128,255" fill="1" layer="-1.00" shape="3488.28,3022.98 3493.40,3023.07 3493.55,3014.92 3488.41,3014.84 3488.28,3022.98"/>
    <poly id="107087268" type="unknown" color="51,128,255" fill="1" layer="-1.00" shape="3355.58,3029.18 3448.64,3029.47 3448.67,3019.76 3355.61,3019.47 3355.58,3029.18"/>
    <poly id="107087270" type="unknown" color="51,128,255" fill="1" layer="-1.00" shape="3701.23,2686.21 3706.23,2686.18 3706.25,2688.55 3770.59,2689.14 3770.42,2683.12 3772.41,2683.10 3772.46,2671.32 3770.73,2671.34 3770.82,2663.99 3751.19,2663.86 3751.25,2671.83 3706.58,2670.45 3706.60,2673.74 3701.40,2673.60 3701.23,2686.21"/>
    <poly id="107087271" type="unknown" color="51,128,255" fill="1" layer="-1.00" shape="3767.18,3024.43 3802.02,3028.49 3804.68,3005.87 3769.84,3001.81 3767.18,3024.43"/>
    <poly id="107087272" type="unknown" color="51,128,255" fill="1" layer="-1.00" shape="3275.09,2622.98 3289.01,2623.00 3289.05,2596.23 3275.13,2596.20 3275.09,2622.98"/>
    <poly id="107087273" type="unknown" color="51,128,255" fill="1" layer="-1.00" shape="3209.43,2603.77 3266.11,2604.42 3266.20,2597.06 3209.51,2596.41 3209.43,2603.77"/>
    <poly id="107087274" type="unknown" color="51,128,255" fill="1" layer="-1.00" shape="3555.17,3051.26 3618.95,3050.48 3618.66,3033.81 3555.54,3034.36 3555.17,3051.26"/>
    <poly id="107087275" type="unknown" color="51,128,255" fill="1" layer="-1.00" shape="3358.37,2959.91 3372.04,2960.05 3372.19,2946.65 3358.53,2946.48 3358.37,2959.91"/>
    <poly id="107087276" type="unknown" color="51,128,255" fill="1" layer="-1.00" shape="3380.44,2772.36 3396.20,2772.67 3396.49,2744.33 3380.75,2743.94 3380.44,2772.36"/>
    <poly id="107087277" type="unknown" color="51,128,255" fill="1" layer="-1.00" shape="4058.31,2672.00 4064.36,2672.50 4065.61,2657.41 4059.56,2656.92 4058.31,2672.00"/>
    <poly id="107087278" type="unknown" color="51,128,255" fill="1" layer="-1.00" shape="4146.45,2752.82 4153.33,2753.85 4154.47,2746.32 4147.59,2745.28 4146.45,2752.82"/>
    <poly id="107087279" type="unknown" color="51,128,255" fill="1" layer="-1.00" shape="3551.49,2959.15 3567.25,2959.46 3567.53,2931.12 3551.80,2930.73 3551.49,2959.15"/>
    <poly id="107087280" type="unknown" color="51,128,255" fill="1" layer="-1.00" shape="4069.05,2693.17 4055.74,2690.90 4052.71,2727.43 4066.00,2728.00 4069.05,2693.17"/>
    <poly id="107087281" type="unknown" color="51,128,255" fill="1" layer="-1.00" shape="3789.81,2784.47 3795.81,2724.32 3813.53,2725.81 3811.12,2764.01 3916.43,2775.65 3919.26,2737.45 3931.99,2739.51 3928.27,2798.30 3913.26,2797.06 3913.22,2792.19 3805.00,2781.38 3805.04,2786.80 3789.81,2784.47"/>
    <poly id="107087282" type="unknown" color="51,128,255" fill="1" layer="-1.00" shape="3399.60,2737.89 3413.09,2737.70 3413.52,2710.22 3399.92,2710.34 3399.60,2737.89"/>
    <poly id="107087283" type="unknown" color="51,128,255" fill="1" layer="-1.00" shape="3258.11,2812.32 3346.02,2811.63 3345.95,2801.61 3258.03,2802.29 3258.11,2812.32"/>