<?xml version="1.0" encoding="UTF-8"?>

<!-- generated on Sat Jun 21 23:34:23 2014 by SUMO duarouter Version dev-SVN-r15797
<?xml version="1.0" encoding="UTF-8"?>

<configuration xmlns:xsi="http://www.w3.org/2001/XMLSchema-instance" xsi:noNamespaceSchemaLocation="http://sumo-sim.org/xsd/duarouterConfiguration.xsd">

    <input>
        <net-file value="Beijing.net.xml"/>
        <trip-files value="Beijing.trips.xml"/>
    </input>

    <output>
        <output-file value="Beijing.rou.xml"/>
    </output>

    <processing>
        <ignore-errors value="true"/>
    </processing>

</configuration>
-->

<routes xmlns:xsi="http://www.w3.org/2001/XMLSchema-instance" xsi:noNamespaceSchemaLocation="http://sumo-sim.org/xsd/routes_file.xsd">
    <vehicle id="0" depart="0.00" departLane="best" departPos="random" departSpeed="max">
        <route edges="-178930296#0 -178930295#0 142101058#4 142101058#5 142101057#0 142101057#1 142101057#2 142101057#3 121399143 175425296#0 175425296#1 175425296#2 -26428252#5 251324796#8 251324796#9 251324796#10 159791647#2 159791634#0 159791634#0-AddedOffRampEdge 159791634#3 159791634#5 251327824#0 128690876#4"/>
    </vehicle>
    <vehicle id="1" depart="1.00" departLane="best" departPos="random" departSpeed="max">
        <route edges="-200877422#1 60946722#0 60946722#2 235466188#1 235466188#6-AddedOnRampEdge 235466188#6 235466188#8 156469314#0 156469314#1 163054825#0 163054825#2 163054825#3 163054825#4 42362547 156469349#0 156469349#1 121399300 219663115#7 169107082-AddedOnRampEdge 169107082 169107082-AddedOffRampEdge 139378006 139378012#0-AddedOnRampEdge 139378012#0 139378012#0-AddedOffRampEdge 139378012#1 26812167#1 26812167#2 26812167#3-AddedOnRampEdge 26812167#3 26812167#3-AddedOffRampEdge 121399149#1 172180974#0 172180974#1 172180974#1-AddedOffRampEdge 172180974#2 172180974#3-AddedOnRampEdge 172180974#3 172180974#4 172180974#5 172180974#5-AddedOffRampEdge 172180974#6 172180974#6-AddedOffRampEdge 121399160#1 121399160#2-AddedOnRampEdge 121399160#2 121399160#2-AddedOffRampEdge 22270614 29235352 116920069#1-AddedOnRampEdge 116920069#1 22270616#1 119980757 119980750#1 119980750#2 119980750#2-AddedOffRampEdge 161466929#0 161466929#0-AddedOffRampEdge 161466929#1 42345998#3-AddedOnRampEdge"/>
    </vehicle>
    <vehicle id="2" depart="2.00" departLane="best" departPos="random" departSpeed="max">
        <route edges="-119617627#1 119617627#1 119617632#1 -121510282#3 -121510282#0 -42364506 161299747#0 161299747#2 161299747#3 235466187#0 235466187#1 235466187#2 239167102#0 239167102#1 239167102#4 239167101 -161288361 -136728278 -122090115#2 -122090115#0 -121510225 -161287539#3 -161287539#0 -187023158 -22799948 83812435#0 83812435#2 142101048#0 142101048#1 142101048#1-AddedOffRampEdge 142101048#3 142101048#4 142101048#6 142101048#7"/>
    </vehicle>
    <vehicle id="3" depart="3.00" departLane="best" departPos="random" departSpeed="max">
        <route edges="26141490#1 42365239#2 161453430#4 116920061#1 26679350 177353854#0 177353854#1 177353854#2 177353854#3 177353854#4 177353854#5 177353854#6 177353854#7 177353854#8 177353854#9 21691079 121100409#0 121100409#1 121100409#1-AddedOffRampEdge 121100409#2 121100409#3 121100409#4 136867395#0 136867395#1 136867395#1-AddedOffRampEdge 136867395#2 170473556 170473545 170473545-AddedOffRampEdge 26679424#1 26679424#2 136867394 120492008#1-AddedOnRampEdge 120492008#1 136867393#0-AddedOnRampEdge 136867393#0 136867393#1 120491981#0 120491981#1 169098104#0 169098104#1 120491971 159794802-AddedOnRampEdge 159794802 159794802-AddedOffRampEdge 120491956 120491999 -120491944#1 169102939#2 169102939#2-AddedOffRampEdge 227668227#0 227668227#1-AddedOnRampEdge 227668227#1 106620116 26812147#1-AddedOnRampEdge"/>
    </vehicle>
    <vehicle id="4" depart="4.00" departLane="best" departPos="random" departSpeed="max">
        <route edges="152435358#1 33532879#5 33532879#6 106615250#4 106615250#5-AddedOnRampEdge 106615250#5 106615250#6 106615250#7 106615250#8 106615250#10 199903003#0 199903003#1 106615217 106615217-AddedOffRampEdge 199903002 169620638#0 169620638#1 159782786#1 159782786#2 159782786#3 159782786#4 161296924 145291249#0 145291249#1 145291249#2 145291249#5 -161460525 161460524#0 161460524#1 161460524#2 161460524#3 161460524#4 161460524#5 161460524#6 161460524#7 161460524#8 161466926 227131929#0 227131929#1 227131929#3 227131929#4 227131929#4-AddedOffRampEdge 227131929#6 227131929#6-AddedOffRampEdge 55885680 55885680-AddedOffRampEdge 33639453#1"/>
    </vehicle>
    <vehicle id="5" depart="5.00" departLane="best" departPos="random" departSpeed="max">
        <route edges="167649019#1 167649019#3 167649019#4 167649019#5 167649019#6 167649019#7 217105657 167651449 139339318#6 139339318#7 139339318#8 139339318#9 235466188#0 235466188#1 235466188#6-AddedOnRampEdge 235466188#6 235466188#8 156469314#0 156469314#1 163054825#0 163054825#2 163054825#3 163054825#4 22758736#5 22758736#6 22758736#7 22758736#8 22758736#9 22758736#10 156469321 121100433#0 121100433#1 121100433#2 121100433#3 121100433#4 121100433#5 121100433#6 42362508 121100438#0 121100438#1 121100438#2 121100438#3 121100438#4 121100438#5 121100438#6 121100438#7 -173308130#1 -173308130#0 -173308122 170863278#0 170863278#0-AddedOffRampEdge 170863278#1 170863278#2 -186874296#3"/>
    </vehicle>
    <vehicle id="6" depart="6.00" departLane="best" departPos="random" departSpeed="max">
        <route edges="167649023#0 167649023#1 139339318#1 139339318#2 139339318#3 139339318#4-AddedOnRampEdge 139339318#4 139339318#5 139339318#6 139339318#7 139339318#8 139339318#9 235466188#0 235466188#1 235466188#6-AddedOnRampEdge 235466188#6 235466188#8 156469314#0 156469314#1 136702243 163054830#0 163054830#1 163054830#1-AddedOffRampEdge 120491941 144929505#0-AddedOnRampEdge 144929505#0 144929505#0-AddedOffRampEdge 144929505#1 144929505#1-AddedOffRampEdge 144929506#0 144929506#1-AddedOnRampEdge 144929506#1 120491948 -120491960 120492000#0 249226405-AddedOnRampEdge 249226405"/>
    </vehicle>
    <vehicle id="7" depart="7.00" departLane="best" departPos="random" departSpeed="max">
        <route edges="175210693#15 144929516 136867413#2 136702234 22759931 144929519#0 144929519#2 144929519#3 217106668#0 217106668#1 172180975#0 172180975#4 175210678#1 175210678#2 175210678#3-AddedOnRampEdge 175210678#3 175210678#5 175210678#6-AddedOnRampEdge 175210678#6 175210678#6-AddedOffRampEdge 121399315 121399158#1-AddedOnRampEdge 121399158#1 121399158#1-AddedOffRampEdge 121399288 175210678#9-AddedOnRampEdge 175210678#9 121399279 121399240#1 -42363103#5"/>
    </vehicle>
    <vehicle id="9" depart="9.00" departLane="best" departPos="random" departSpeed="max">
        <route edges="-42943340 219439945#4 219439945#5 235466188#0 235466188#1 235466188#6-AddedOnRampEdge 235466188#6 235466188#8 156469314#0 156469314#1 163054825#0 163054825#2 163054825#3 163054825#4 42362547 156469349#0 156469349#1 121399300 219663115#7 169107082-AddedOnRampEdge 169107082 169107082-AddedOffRampEdge 139378006 139378012#0-AddedOnRampEdge 139378012#0 139378012#0-AddedOffRampEdge 139378012#1 26812167#1 219661650 42412657#1-AddedOnRampEdge 42412657#1 42412657#2 42412657#3-AddedOnRampEdge 42412657#3 42412657#4 42412657#4-AddedOffRampEdge 42412657#5 42412657#6 172179671#0 227135623#0 227135623#1 227135622#0 175210696#6 175210696#8 159791619 24691220#2 237581600#0 237581600#1 237581600#4 23892248#3 23892248#4 -23892248#4"/>
    </vehicle>
    <vehicle id="10" depart="10.00" departLane="best" departPos="random" departSpeed="max">
        <route edges="42411828#0 42411828#1 -33458106#2 -33458106#1 -33458106#0 219663115#2 219663115#3 219663115#4 219663115#5 219663115#5-AddedOffRampEdge 219663115#6 156469319 156469348#0 156469348#1 156469323 156469313#0 156469313#2 156469313#3 156469313#4 170484450#0 170484450#1 24399537#0 170482156#2 170482156#5 219487085#0 219487085#1 219487085#2 219487085#3 219487085#4 219487085#5 219487085#6 219487086#0 219487086#2 26812136#0 26812136#1 26812135#0 26812135#1 26812135#1-AddedOffRampEdge 26812135#2 26812135#3-AddedOnRampEdge 26812135#3 26812135#5 240367922#0 240367922#0-AddedOffRampEdge 240367922#1 240367922#2 162546313 162546312#0 136512026 136512002#0 136512002#1 136511995#3 136511995#4 136511995#5 136511995#6-AddedOnRampEdge 136511995#6 136511995#7 136512001#0 136512001#1 136512001#2 136512001#3 136512001#4 136512001#5 136597108#3 136511998#1"/>
    </vehicle>
    <vehicle id="11" depart="11.00" departLane="best" departPos="random" departSpeed="max">
        <route edges="163825162#0 171981508#4 121657045#5 240367921#2 163825161#0 163825161#1 163825161#2 171983189#0 172179667#0 172179667#1 22759931 144929519#0 144929519#2 144929519#3 217106668#0 27262016#0 217106666#1"/>
    </vehicle>
    <vehicle id="12" depart="12.00" departLane="best" departPos="random" departSpeed="max">
        <route edges="27572729#0 27572729#1-AddedOnRampEdge 27572729#1 27572729#2 27572729#3 42399576 139339318#5 139339318#6 139339318#7 139339318#8 139339318#9 -219439945#6 -219439945#4 -219439945#3 -219439945#2 60110710#0 60110776#0 -266510297 -266510296#0 60110704#1 266510293#0 -266510294 -266510291#1"/>
    </vehicle>
    <vehicle id="13" depart="13.00" departLane="best" departPos="random" departSpeed="max">
        <route edges="48051223#7 161453446 29235323#6 29235323#7 121399145#1-AddedOnRampEdge 121399145#1 121399145#1-AddedOffRampEdge 121399145#2 242787710#0 242787710#1 242787710#2-AddedOnRampEdge 242787710#2 242787710#3 242787709 121399158#1-AddedOnRampEdge 121399158#1 121399158#1-AddedOffRampEdge 121399158#2 26812157#1 26812157#2 26812157#2-AddedOffRampEdge 219661660 103140442#0 103140442#1 121100429#0 42362508 121100438#0 121100438#1 121100438#2 121100438#3 121100438#4 121100438#5 121100438#6 121100438#7 -173308130#1 -173308130#0 -173308122 170863278#0 170863278#0-AddedOffRampEdge 170863278#1 170863278#2 170863278#3 170863278#4 170863278#5 170863278#6 170863278#6-AddedOffRampEdge 103140418 103140413#1-AddedOnRampEdge 103140413#1 103140413#1-AddedOffRampEdge 103140413#2 173308105#0 103143723 136965836#1-AddedOnRampEdge 136965836#1 136965836#2 173308108#0 -34104274#4 34104274#2"/>
    </vehicle>
    <vehicle id="14" depart="14.00" departLane="best" departPos="random" departSpeed="max">
        <route edges="119980740#5-AddedOffRampEdge 59452364#0 59452364#0-AddedOffRampEdge 237622427 59452363#1-AddedOnRampEdge 59452363#1 59452363#2 121399189#1-AddedOnRampEdge 121399189#1 152429651#0 152429651#1 283538690#0 283538690#3 283538690#4 42353538#0 42353538#1 42353538#4 42353538#6 42353538#7 238412940#1 238412940#2 238412940#3 238412940#4 42364677 227131927#5 30784174#1 30784174#3 30784174#4 30784174#5 30784174#6 30784174#7 170244802#0 170244802#1 170244802#2 170244802#3 170244811 170244842#0 170244842#1 170244804#1"/>
    </vehicle>
    <vehicle id="15" depart="15.00" departLane="best" departPos="random" departSpeed="max">
        <route edges="176576462#2-AddedOnRampEdge 176576462#2 176576462#2-AddedOffRampEdge 128690900#0 128690900#1-AddedOnRampEdge 128690900#1 55885444#1 121399208 26679374#0-AddedOnRampEdge 26679374#0 26679374#1 26679374#1-AddedOffRampEdge 26679374#2 26679374#3 26679374#4 26679374#5 26679374#6-AddedOnRampEdge 26679374#6 26679374#7 27065922 27081674#1-AddedOnRampEdge 27081674#1 27081674#1-AddedOffRampEdge 27081674#2 122345938#1-AddedOnRampEdge 122345938#1 122345938#1-AddedOffRampEdge 121991164 122100442-AddedOnRampEdge 122100442 122100442-AddedOffRampEdge 170473554#1 121657041#1 121657041#2 163825697#0 163825702 163825698 178363625 142101048#0 142101048#1 142101048#1-AddedOffRampEdge 142101048#3 72701418#0 72701418#1 72701418#3 105276036#1"/>
    </vehicle>
    <vehicle id="16" depart="16.00" departLane="best" departPos="random" departSpeed="max">
        <route edges="-42362228#7 42362228#4 173308122 5158566#0 5158566#1-AddedOnRampEdge 5158566#1 5158566#1-AddedOffRampEdge 103140462 136965844#1-AddedOnRampEdge 136965844#1 136965844#1-AddedOffRampEdge 103140479 5158566#4-AddedOnRampEdge 5158566#4 24399558 103140475#0 103140475#0-AddedOffRampEdge 103140475#1 103140475#2-AddedOnRampEdge 103140475#2 139378012#0-AddedOnRampEdge 139378012#0 139378012#0-AddedOffRampEdge 139378012#1 26812167#1 26812167#2 26812167#3-AddedOnRampEdge 26812167#3 26812167#3-AddedOffRampEdge 121399149#1 172180974#0 172180974#1 172180974#1-AddedOffRampEdge 172180974#2 172180974#3-AddedOnRampEdge 172180974#3 172180974#4 172180974#5 172180974#5-AddedOffRampEdge 219661653 121399172#8-AddedOnRampEdge 121399172#8 121399172#8-AddedOffRampEdge 121399172#9 121399172#10 161289850 161289848#0 161299747#0 161299747#2 161299747#3 121100408#0 121100408#1 121100408#2 121100408#3 121100408#4 121100408#5 121100408#6 121100408#7-AddedOnRampEdge 121100408#7 48069807 234442035 26679327#2 26679327#3 177353854#0"/>
    </vehicle>
    <vehicle id="17" depart="17.00" departLane="best" departPos="random" departSpeed="max">
        <route edges="121903956 103143717 173308105#0 103143723 136965836#1-AddedOnRampEdge 136965836#1 121903963 195190337#1-AddedOnRampEdge 195190337#1 42488541 136965840#0 103140443 4857335#1-AddedOnRampEdge 4857335#1 4857335#1-AddedOffRampEdge 4857335#2 136965844#1-AddedOnRampEdge 136965844#1 136965844#1-AddedOffRampEdge 103140479 5158566#4-AddedOnRampEdge 5158566#4 24399558 103140475#0 103140475#0-AddedOffRampEdge 103140475#1 103140475#2-AddedOnRampEdge 103140475#2 139378012#0-AddedOnRampEdge 139378012#0 139378012#0-AddedOffRampEdge 139378012#1 26812167#1 219661650 42412657#1-AddedOnRampEdge 42412657#1 42412657#2 42412657#3-AddedOnRampEdge 42412657#3 42412657#4 42412657#4-AddedOffRampEdge 42412657#5 42412657#6 172179666#0 175210690 175210695#0 175210695#1 175210695#3 175210695#3-AddedOffRampEdge 175210695#4 156469356#0 156469356#1 156469356#2-AddedOnRampEdge 156469356#2 156469356#3 156469356#4 227668224 41656946#3 41656946#4"/>
    </vehicle>
    <vehicle id="18" depart="18.00" departLane="best" departPos="random" departSpeed="max">
        <route edges="-264247410 -264247407#1 -264247407#0 121778743#2 237011437#1 138694650#0 138694650#1 138694650#2 138694650#3 138694650#3-AddedOffRampEdge 139882019#0 139882019#2 142101066#1 139882023#0 139882023#1 163825704#2 163825696#0 136867390 136867389#0 121904216#0 121904216#2 162970620#0 162970620#1 162970620#4 162970632 121510246 27081693#0 27081693#1 27081693#4 163826846 162970624#0 162970624#1 161355966-AddedOnRampEdge 161355966 161355966-AddedOffRampEdge 161355929#1 161355929#2 161355929#3 161355930#0 161355930#1 161355930#2 161355930#3 -161463771#1 -161463771#0 161357280#1 161463767#2 161463767#3"/>
    </vehicle>
    <vehicle id="19" depart="19.00" departLane="best" departPos="random" departSpeed="max">
        <route edges="26679374#0-AddedOnRampEdge 26679374#0 -55885542#1 55885543 121399162 121399170#0 121399170#1-AddedOnRampEdge 121399170#1 121399170#1-AddedOffRampEdge 121399250 121399211#1 55885440 55885442#0-AddedOnRampEdge 55885442#0 121399252 121399164#1 121399164#1-AddedOffRampEdge 121399393 172180974#3-AddedOnRampEdge 172180974#3 172180974#4 172180974#5 172180974#5-AddedOffRampEdge 219661653 121399172#8-AddedOnRampEdge 121399172#8 121399172#8-AddedOffRampEdge 121399172#9 161289847#0 161289847#1 152429645#0 42345995 161466911#0 161466911#3 152429673#13 152429655#4 152429655#5"/>
    </vehicle>
    <vehicle id="20" depart="20.00" departLane="best" departPos="random" departSpeed="max">
        <route edges="251325072#6 159791645#6 251324796#7 251324796#8 251324796#9 251324796#10 159791647#2 159791634#0 159791634#0-AddedOffRampEdge 159791634#3 159791634#5 251327824#0 251327824#3 22759944 159783239#0 159783239#1 159783239#4 159783239#5 251329004 175210694#0 175210690 175210678#0 175210678#1 175210678#2 175210678#3-AddedOnRampEdge 175210678#3 175210678#5 175210678#6-AddedOnRampEdge 175210678#6 175210678#6-AddedOffRampEdge 121399315 121399158#1-AddedOnRampEdge 121399158#1 121399158#1-AddedOffRampEdge 121399288 175210678#9-AddedOnRampEdge 175210678#9 103140438 121399337"/>
    </vehicle>
    <vehicle id="21" depart="21.00" departLane="best" departPos="random" departSpeed="max">
        <route edges="217991113#3 164439290#0 -249229901 121657047#1 164439283#0 164439283#1 164439283#2 164439283#3 163825161#0 163825161#1 163825161#2 171983189#0 172179667#0 172179667#1 22759931 144929519#0 144929519#2 144929519#3 217106668#0 217106668#1 172180975#0 172180975#4 175210689 172179671#0 227135623#0 227135623#1 227135622#0 175210696#6 175210696#8 159791619 24691220#2 237581600#0 237581600#1 237581600#4 237581600#7 237581600#11 237581600#12 175425296#2 -26428252#5 251324796#8 175425296#4 175425296#6 175425296#7 60051358#0 128690923 170261261 170261268 128690909#2 128690881 128690877#1-AddedOnRampEdge 128690877#1 176576446#0 176576446#0-AddedOffRampEdge 170628856"/>
    </vehicle>
    <vehicle id="22" depart="22.00" departLane="best" departPos="random" departSpeed="max">
        <route edges="25207520#9 -25207520#9 121399482#5 229610047 229610044#0 229610044#1 229610044#2 229610044#3 24691220#2 24691220#3 22759944 159783239#0 159783239#1 159783239#4 159783239#5 251329004 175210694#0 175210690 175210695#0 -42363120"/>
    </vehicle>
    <vehicle id="23" depart="23.00" departLane="best" departPos="random" departSpeed="max">
        <route edges="161296943#7 152429673#2 42353627#2 42353627#3 42353627#6 42353627#8 42353627#9 161296941#0 161296941#1 161296941#2 161296941#3 161460524#3 161460524#4 161460524#5 93467805#4 93467805#5 93467805#6 -161357286#3 -161357286#1 161357280#0 161357280#1 161463767#2 161463767#3 161463767#4 161463767#5 161463767#6 161463767#7 161463767#8 161463767#9 -42353589#1 42354950#2 42354950#2-AddedOffRampEdge 176576457#0"/>
    </vehicle>
    <vehicle id="24" depart="24.00" departLane="best" departPos="random" departSpeed="max">
        <route edges="172180974#0 172180974#1 172180974#1-AddedOffRampEdge 121399304 121399164#1 121399164#1-AddedOffRampEdge 121399172#0 121399242 128690900#1-AddedOnRampEdge 128690900#1 121399455 121399170#1-AddedOnRampEdge 121399170#1 121399170#1-AddedOffRampEdge 121399181#0 121399272 242787710#3 242787709 121399158#1-AddedOnRampEdge 121399158#1 121399158#1-AddedOffRampEdge 121399158#2 26812157#1 26812157#2 26812157#2-AddedOffRampEdge 169107077 219661662-AddedOnRampEdge 219661662 219661662-AddedOffRampEdge 169107081#0 169107081#1 156469348#0 156469348#1 156469323 156469313#0 156469313#2 156469313#3 156469313#4 170484450#0 170484450#1 24399537#0 170482156#2 170482156#5 219487085#0 219487085#1 219487085#2 219487085#3 219487085#4 219487085#5 219487085#6 219487087 219439618#0 219439618#1 219439618#2 219439618#3 219439618#4 175590393#0 175590393#1 175590393#2 175590393#3 175590393#4 175590393#4-AddedOffRampEdge 175590393#5 175590393#6 155577044#1 155577044#2 155577043 155577047#0 -155577047#0"/>
    </vehicle>
    <vehicle id="25" depart="25.00" departLane="best" departPos="random" departSpeed="max">
        <route edges="219661662 219661662-AddedOffRampEdge 169107081#0 169107081#1 156469348#0 156469348#1 156469323 156469313#0 156469313#2 156469313#3 156469313#4 170484450#0 170484450#1 24399537#0 170482156#2 170482156#5 219487085#0 219487085#1 219487085#2 167651454#0 167651454#2 121657047#0 121657047#1 164439283#0 164439283#1 164439283#2 164439283#3 163825161#0 -42411590#2 42411590#2"/>
    </vehicle>
    <vehicle id="26" depart="26.00" departLane="best" departPos="random" departSpeed="max">
        <route edges="-60110831#0 -60110710#1 -60110710#0 219439945#2 219439945#3 219439945#4 219439945#5 235466188#0 235466188#1 235466188#6-AddedOnRampEdge 235466188#6 235466188#8 156469314#0 156469314#1 163054825#0 163054825#2 163054825#3 163054825#4 42362547 156469349#0 156469349#1 121399300 219663115#7 169107082-AddedOnRampEdge 169107082 169107082-AddedOffRampEdge 139378006 139378012#0-AddedOnRampEdge 139378012#0 139378012#0-AddedOffRampEdge 139378012#1 26812167#1 26812167#2 26812167#3-AddedOnRampEdge 26812167#3 26812167#3-AddedOffRampEdge 121399333 172179666#5 121399203#0 175210703#2 175210679 121399180#6 121399180#7 121399180#9 121399180#10 121399177#1-AddedOnRampEdge 121399177#1 121399177#3 -161463771#1 -161463771#0 -161463772#2 -161463772#1 -161463770#0 161296942#4"/>
    </vehicle>
    <vehicle id="27" depart="27.00" departLane="best" departPos="random" departSpeed="max">
        <route edges="-26141490#1 26141490#1 42365239#2 161453430#4 116920061#1 177353848 48051223#0 48051223#1-AddedOnRampEdge 48051223#1 48051223#2 48051223#2-AddedOffRampEdge 116920057 29235323#4-AddedOnRampEdge 29235323#4 29235323#5-AddedOnRampEdge 29235323#5 29235323#6 29235323#7 121399145#1-AddedOnRampEdge 121399145#1 121399145#1-AddedOffRampEdge 121399145#2 242787710#0 242787710#1 242787710#2-AddedOnRampEdge 242787710#2 242787710#3 242787709 121399158#1-AddedOnRampEdge 121399158#1 121399158#1-AddedOffRampEdge 121399158#2 26812157#1 26812157#2 26812157#2-AddedOffRampEdge 219661660 103140442#0 103140442#1 121100429#0 42362508 121100438#0 121100438#1 121100438#2 121100438#3 121100438#4 121100438#5 121100438#6 121100438#7 121100438#8 121100438#9 121100438#10 121399482#1"/>
    </vehicle>
    <vehicle id="28" depart="28.00" departLane="best" departPos="random" departSpeed="max">
        <route edges="138332527#1 156469345#2 -33455857 42454101#5 42454101#6 42454101#7 156469343 156469344#0 121657045#1 121657045#2 121657045#4 121657045#5 121657045#6 240367923#0 240367923#0-AddedOffRampEdge 240367923#1 240367923#2-AddedOnRampEdge 240367923#2 240367923#3 164439290#0 164439290#1 27572729#0 27572729#1-AddedOnRampEdge 27572729#1 27572729#2 27572729#3 42399576 139339318#5 139339318#6 139339318#7 139339318#8 139339318#9 235466188#0 -60946722#2 -60946722#1 60946722#0"/>
    </vehicle>
    <vehicle id="29" depart="29.00" departLane="best" departPos="random" departSpeed="max">
        <route edges="59452363#1 59452363#2 121399189#1-AddedOnRampEdge 121399189#1 152429651#0 161466911#7 119980740#3 119980740#4 119980740#5 119980740#5-AddedOffRampEdge 119980740#6 119980740#6-AddedOffRampEdge 55819998#1 55820118#1-AddedOnRampEdge 55820118#1 121399195#1 121399195#2 121399338 177353854#6 177353854#7 177353854#8 177353854#9 235466187#1 235466187#2 239167102#0 239167102#1 239167102#4 239167101 -161288361 -136728278 -122090115#2 -122090115#0 -121510225 -161287539#3 -161287539#0 -187023158 -22799948 83812435#0 83812435#2 142101066#0 142101066#1 139882020#0 139882020#0-AddedOffRampEdge 177353857#0 177353857#2 121657045#1 121657045#2 121657045#4 121657045#5 121657045#6 240367923#0 240367923#0-AddedOffRampEdge 240367923#1 240367923#2-AddedOnRampEdge 240367923#2 240367923#3 240367931#0 240367931#1-AddedOnRampEdge 240367931#1 150522794 150522783#1-AddedOnRampEdge 150522783#1 150608622#0 150608622#0-AddedOffRampEdge 150608622#1 143599467#0 121781867 143599468#1-AddedOnRampEdge 143599468#1 143599468#1-AddedOffRampEdge 143599468#4 174144377 174799521#0 -182041289#2 143599455#1 42454222"/>
    </vehicle>
    <vehicle id="30" depart="30.00" departLane="best" departPos="random" departSpeed="max">
        <route edges="-60110719#0 163057032#4 121100415 121100437#0 121100437#1 121100437#1-AddedOffRampEdge 121100435#0 121100435#1 121100443 156469346#0 156469346#1 156469346#2-AddedOnRampEdge 156469346#2 156469346#3 227668231#0 227668231#1 227668231#1-AddedOffRampEdge 227668231#2 121980931 144929509#0 144929509#2 171983188#0 171981508#0 171981508#1 171981508#2 171981508#3 171981508#4 171981508#5 171981508#5-AddedOffRampEdge 156469315#0 156469315#1 156469315#2 136512026 136512002#0 136512002#1 136511995#3 136511995#4 136511995#5 136511995#6-AddedOnRampEdge 136511995#6 136511995#7 136512001#0 136512001#1 136512001#2 136512001#3 136512001#4 -136512010#3"/>
    </vehicle>
    <vehicle id="31" depart="31.00" departLane="best" departPos="random" departSpeed="max">
        <route edges="136965848#0 136965848#1 170858300#0 170858300#0-AddedOffRampEdge 170858300#1 170858300#2 122090133#0 51382858 136879322#1-AddedOnRampEdge 136879322#1 136879322#1-AddedOffRampEdge 145286351 120492014#1-AddedOnRampEdge 120492014#1 120491970 163054834#1-AddedOnRampEdge 163054834#1 163054834#2 165168945#0 165168944#0 165168944#1 165168944#2 170484450#1 24399537#0 170482156#2 170482156#5 219487085#0 219487085#1 219487085#2 219487085#3 219487085#4 219487085#5 219487085#6 219487087 -182042882#3 -182042882#2 -182042882#1 -182042882#0 182042896#0 182042896#1 182042896#1-AddedOffRampEdge 182042896#3 240367924 143599441 143599456#0 143599456#1 174144373-AddedOnRampEdge 174144373 174144373-AddedOffRampEdge 174144370#0 182857676#0 -182857677#1 -182857673#1"/>
    </vehicle>
    <vehicle id="32" depart="32.00" departLane="best" departPos="random" departSpeed="max">
        <route edges="-29812597#1 122345027#3 122345027#4 122345017 162970619#5 239167098 163923659 121904215 121904214 138690684 138690677#0 138690677#2 178363625 142101066#0 142101066#1 139882020#0 139882020#0-AddedOffRampEdge 177353857#0 177353857#2 121657045#1 121657045#2 121657045#4 171981508#5 171981508#5-AddedOffRampEdge 156469325 156469353#0-AddedOnRampEdge 156469353#0"/>
    </vehicle>
    <vehicle id="33" depart="33.00" departLane="best" departPos="random" departSpeed="max">
        <route edges="60946722#0 60946722#2 235466188#1 235466188#6-AddedOnRampEdge 235466188#6 235466188#8 156469314#0 156469314#1 163054825#0 163054825#2 163054825#3 163054825#4 42362547 156469349#0 156469349#1 121399300 219663115#7 169107082-AddedOnRampEdge 169107082 169107082-AddedOffRampEdge 139378006 139378012#0-AddedOnRampEdge 139378012#0 139378012#0-AddedOffRampEdge 139378012#1 26812167#1 26812167#2 26812167#3-AddedOnRampEdge 26812167#3 26812167#3-AddedOffRampEdge 121399333 172179666#5 121399203#0 175210703#2 175210679 175210707#0 175210707#1 175210707#2 175210707#3 -97291935 24691220#7 159783520 170628889#0 170628889#1-AddedOnRampEdge 170628889#1 170628889#2 128690885 176576459#2 128690892 170628889#4 170628889#4-AddedOffRampEdge 128690926 170261255 170261273 60064579#4"/>
    </vehicle>
    <vehicle id="35" depart="35.00" departLane="best" departPos="random" departSpeed="max">
        <route edges="42400216#1 163054825#2 163054825#3 163054825#4 42362547 156469349#0 156469349#1 121399300 219663115#7 169107082-AddedOnRampEdge 169107082 169107082-AddedOffRampEdge 139378006 139378012#0-AddedOnRampEdge 139378012#0 139378012#0-AddedOffRampEdge 139378012#1 26812167#1 26812167#2 26812167#3-AddedOnRampEdge 26812167#3 26812167#3-AddedOffRampEdge 121399149#1 172180974#0 172180974#1 172180974#1-AddedOffRampEdge 172180974#2 172180974#3-AddedOnRampEdge 172180974#3 172180974#4 121399292 121399172#4 121399172#5 121399172#6-AddedOnRampEdge 121399172#6 -42355000#1 42355000#1"/>
    </vehicle>
    <vehicle id="36" depart="36.00" departLane="best" departPos="random" departSpeed="max">
        <route edges="30748182#0 -30748182#0 201288048#3 182042896#0 182042896#1 182042896#1-AddedOffRampEdge 182042896#3 182039198 240367930#0-AddedOnRampEdge 240367930#0 240367930#1 240367930#3 240367930#3-AddedOffRampEdge 121781871 47504770#1 121781874 156346934#0 156346934#2 156346934#2-AddedOffRampEdge 156346934#6 156346934#8 150522819 26812136#0 26812136#1 26812135#0 26812135#1 26812135#1-AddedOffRampEdge 26812135#2 26812135#3-AddedOnRampEdge 26812135#3 26812135#5 240367922#0 240367922#0-AddedOffRampEdge 240367922#1 240367922#2 162546313 162546312#0 162546312#1 162546312#2 162546312#3 162546312#4 162546312#4-AddedOffRampEdge 162546312#5 162546312#6 162546312#7 128624210#0 128624210#2 128624210#3 26152148 121778743#0 121778743#1 121778743#2 237011437#1 138694680 138690689#0 138690689#1 237011435#3 237011436 138684426#0 138684423#0 128576354#1 -235466190#0 244012055 244012054 138694667 138694667-AddedOffRampEdge 138694664 25686354 127635204 127635194#1 143749968#0 143749968#3 143749968#4 174646965"/>
    </vehicle>
    <vehicle id="37" depart="37.00" departLane="best" departPos="random" departSpeed="max">
        <route edges="60051358#0 60051358#1 60051358#2-AddedOnRampEdge 60051358#2 60051358#2-AddedOffRampEdge 128690931 -170261259 170261274 170261269#1 128690921-AddedOnRampEdge 128690921 128690901#0 128690901#1 128690901#2 128690879 29201273#2-AddedOnRampEdge 29201273#2 29201273#3 29201273#4 176576458#1-AddedOnRampEdge 176576458#1 176576460#0 176576460#0-AddedOffRampEdge 176576460#1 176576460#1-AddedOffRampEdge 176576460#2 176576460#3 176576460#3-AddedOffRampEdge 176576460#4 55885564 55885566#0 55885566#1-AddedOnRampEdge 55885566#1 27081675 27081674#1-AddedOnRampEdge 27081674#1 27081674#1-AddedOffRampEdge 27081674#2 122345938#1-AddedOnRampEdge 122345938#1 122345938#1-AddedOffRampEdge 121991164 122100442-AddedOnRampEdge 122100442 122100442-AddedOffRampEdge 170473554#1 122100440#2 122100440#3 177353870#0-AddedOnRampEdge 177353870#0 156469345#0 156469345#1 156469345#2 156469345#5 156469345#5-AddedOffRampEdge 156469345#10 34319868#0 34319868#1 26812102 121778742#0 121778742#1 121778742#1-AddedOffRampEdge 121778742#2 121778742#3-AddedOnRampEdge 121778742#3 163822328#0 128624218#3 121778742#5 121778742#5-AddedOffRampEdge 121778742#6 136511990#0 136511990#1 136512012#2 136511986#8"/>
    </vehicle>
    <vehicle id="38" depart="38.00" departLane="best" departPos="random" departSpeed="max">
        <route edges="136597122 136597127 136597108#0 -136512014#0 191050697#8 191050697#8-AddedOffRampEdge 191050697#9 229699730 26152148 121778743#0 121778743#1 121778743#2 237011437#1 138694650#0 138694650#1 138694650#2 138694650#3 138694650#3-AddedOffRampEdge 139882019#0 139882019#2 138685369 163825698 178363614#0 178363614#1 178363614#3 178363614#4 187023158 161287539#0 161287539#1 121510225 122090115#0 122090115#1 136728278 161288361 142101053#0 142101053#1"/>
    </vehicle>
    <vehicle id="39" depart="39.00" departLane="best" departPos="random" departSpeed="max">