<?xml version="1.0"?>
<!-- generated on 2014-06-21 23:34:22.588117 by $Id: randomTrips.py 15769 2014-02-27 14:07:35Z namdre $ -->
<trips>
    <trip id="0" depart="0.00" from="-178930296#0" to="128690876#4" departLane="best" departSpeed="max" departPos="random"/>
    <trip id="1" depart="1.00" from="-200877422#1" to="42345998#3-AddedOnRampEdge" departLane="best" departSpeed="max" departPos="random"/>
    <trip id="2" depart="2.00" from="-119617627#1" to="142101048#7" departLane="best" departSpeed="max" departPos="random"/>
    <trip id="3" depart="3.00" from="26141490#1" to="26812147#1-AddedOnRampEdge" departLane="best" departSpeed="max" departPos="random"/>
    <trip id="4" depart="4.00" from="152435358#1" to="33639453#1" departLane="best" departSpeed="max" departPos="random"/>
    <trip id="5" depart="5.00" from="167649019#1" to="-186874296#3" departLane="best" departSpeed="max" departPos="random"/>
    <trip id="6" depart="6.00" from="167649023#0" to="249226405" departLane="best" departSpeed="max" departPos="random"/>
    <trip id="7" depart="7.00" from="175210693#15" to="-42363103#5" departLane="best" departSpeed="max" departPos="random"/>
    <trip id="8" depart="8.00" from="227668228" to="169620640#1" departLane="best" departSpeed="max" departPos="random"/>
    <trip id="9" depart="9.00" from="-42943340" to="-23892248#4" departLane="best" departSpeed="max" departPos="random"/>
    <trip id="10" depart="10.00" from="42411828#0" to="136511998#1" departLane="best" departSpeed="max" departPos="random"/>
    <trip id="11" depart="11.00" from="163825162#0" to="217106666#1" departLane="best" departSpeed="max" departPos="random"/>
    <trip id="12" depart="12.00" from="27572729#0" to="-266510291#1" departLane="best" departSpeed="max" departPos="random"/>
    <trip id="13" depart="13.00" from="48051223#7" to="34104274#2" departLane="best" departSpeed="max" departPos="random"/>
    <trip id="14" depart="14.00" from="119980740#5-AddedOffRampEdge" to="170244804#1" departLane="best" departSpeed="max" departPos="random"/>
    <trip id="15" depart="15.00" from="176576462#2-AddedOnRampEdge" to="105276036#1" departLane="best" departSpeed="max" departPos="random"/>
    <trip id="16" depart="16.00" from="-42362228#7" to="177353854#0" departLane="best" departSpeed="max" departPos="random"/>
    <trip id="17" depart="17.00" from="121903956" to="41656946#4" departLane="best" departSpeed="max" departPos="random"/>
    <trip id="18" depart="18.00" from="-264247410" to="161463767#3" departLane="best" departSpeed="max" departPos="random"/>
    <trip id="19" depart="19.00" from="26679374#0-AddedOnRampEdge" to="152429655#5" departLane="best" departSpeed="max" departPos="random"/>
    <trip id="20" depart="20.00" from="251325072#6" to="121399337" departLane="best" departSpeed="max" departPos="random"/>
    <trip id="21" depart="21.00" from="217991113#3" to="170628856" departLane="best" departSpeed="max" departPos="random"/>
    <trip id="22" depart="22.00" from="25207520#9" to="-42363120" departLane="best" departSpeed="max" departPos="random"/>
    <trip id="23" depart="23.00" from="161296943#7" to="176576457#0" departLane="best" departSpeed="max" departPos="random"/>
    <trip id="24" depart="24.00" from="172180974#0" to="-155577047#0" departLane="best" departSpeed="max" departPos="random"/>
    <trip id="25" depart="25.00" from="219661662" to="42411590#2" departLane="best" departSpeed="max" departPos="random"/>
    <trip id="26" depart="26.00" from="-60110831#0" to="161296942#4" departLane="best" departSpeed="max" departPos="random"/>
    <trip id="27" depart="27.00" from="-26141490#1" to="121399482#1" departLane="best" departSpeed="max" departPos="random"/>
    <trip id="28" depart="28.00" from="138332527#1" to="60946722#0" departLane="best" departSpeed="max" departPos="random"/>
    <trip id="29" depart="29.00" from="59452363#1" to="42454222" departLane="best" departSpeed="max" departPos="random"/>
    <trip id="30" depart="30.00" from="-60110719#0" to="-136512010#3" departLane="best" departSpeed="max" departPos="random"/>
    <trip id="31" depart="31.00" from="136965848#0" to="-182857673#1" departLane="best" departSpeed="max" departPos="random"/>
    <trip id="32" depart="32.00" from="-29812597#1" to="156469353#0" departLane="best" departSpeed="max" departPos="random"/>
    <trip id="33" depart="33.00" from="60946722#0" to="60064579#4" departLane="best" departSpeed="max" departPos="random"/>
    <trip id="34" depart="34.00" from="174799521#3" to="161466905#4" departLane="best" departSpeed="max" departPos="random"/>
    <trip id="35" depart="35.00" from="42400216#1" to="42355000#1" departLane="best" departSpeed="max" departPos="random"/>
    <trip id="36" depart="36.00" from="30748182#0" to="174646965" departLane="best" departSpeed="max" departPos="random"/>
    <trip id="37" depart="37.00" from="60051358#0" to="136511986#8" departLane="best" departSpeed="max" departPos="random"/>
    <trip id="38" depart="38.00" from="136597122" to="142101053#1" departLane="best" departSpeed="max" departPos="random"/>
    <trip id="39" depart="39.00" from="237581600#4" to="-33610531" departLane="best" departSpeed="max" departPos="random"/>
    <trip id="40" depart="40.00" from="-33679540#3" to="136512002#3" departLane="best" departSpeed="max" departPos="random"/>
    <trip id="41" depart="41.00" from="136968705-AddedOnRampEdge" to="268525881#1" departLane="best" departSpeed="max" departPos="random"/>
    <trip id="42" depart="42.00" from="42660450" to="-60105884" departLane="best" departSpeed="max" departPos="random"/>
    <trip id="43" depart="43.00" from="-60110714" to="60110789#1" departLane="best" departSpeed="max" departPos="random"/>
    <trip id="44" depart="44.00" from="136879322#1-AddedOnRampEdge" to="176576460#0-AddedOffRampEdge" departLane="best" departSpeed="max" departPos="random"/>
    <trip id="45" depart="45.00" from="127485853#5" to="42660679" departLane="best" departSpeed="max" departPos="random"/>
    <trip id="46" depart="46.00" from="42355146#1" to="161298711#4" departLane="best" departSpeed="max" departPos="random"/>
    <trip id="47" depart="47.00" from="136597132" to="121510218#6" departLane="best" departSpeed="max" departPos="random"/>
    <trip id="48" depart="48.00" from="42746531#2" to="165169000#1" departLane="best" departSpeed="max" departPos="random"/>
    <trip id="49" depart="49.00" from="60110781" to="169102939#2-AddedOffRampEdge" departLane="best" departSpeed="max" departPos="random"/>
    <trip id="50" depart="50.00" from="250714888" to="-268525882#1" departLane="best" departSpeed="max" departPos="random"/>
    <trip id="51" depart="51.00" from="243055470#0" to="-42363103#3" departLane="best" departSpeed="max" departPos="random"/>
    <trip id="52" depart="52.00" from="242787710#3" to="227131352#10" departLane="best" departSpeed="max" departPos="random"/>
    <trip id="53" depart="53.00" from="22758736#4" to="161466911#16-AddedOnRampEdge" departLane="best" departSpeed="max" departPos="random"/>
    <trip id="54" depart="54.00" from="78061350#5" to="234442007#3" departLane="best" departSpeed="max" departPos="random"/>
    <trip id="55" depart="55.00" from="169620644#3" to="143832414#2" departLane="best" departSpeed="max" departPos="random"/>
    <trip id="56" depart="56.00" from="156469330" to="182857677#1" departLane="best" departSpeed="max" departPos="random"/>
    <trip id="57" depart="57.00" from="-169352443" to="26812102" departLane="best" departSpeed="max" departPos="random"/>
    <trip id="58" depart="58.00" from="60110704#5" to="144929506#2" departLane="best" departSpeed="max" departPos="random"/>
    <trip id="59" depart="59.00" from="229610040-AddedOnRampEdge" to="175210693#8" departLane="best" departSpeed="max" departPos="random"/>
    <trip id="60" depart="60.00" from="24399553#8" to="136867391#1-AddedOffRampEdge" departLane="best" departSpeed="max" departPos="random"/>
    <trip id="61" depart="61.00" from="150608626#0" to="-161296928#1" departLane="best" departSpeed="max" departPos="random"/>
    <trip id="62" depart="62.00" from="163057013" to="237581600#4" departLane="best" departSpeed="max" departPos="random"/>
    <trip id="63" depart="63.00" from="-29257716#0" to="136512013#1" departLane="best" departSpeed="max" departPos="random"/>
    <trip id="64" depart="64.00" from="42400216#0" to="121399162" departLane="best" departSpeed="max" departPos="random"/>
    <trip id="65" depart="65.00" from="103140447" to="121399440#0" departLane="best" departSpeed="max" departPos="random"/>
    <trip id="66" depart="66.00" from="-50633438" to="187541349#1" departLane="best" departSpeed="max" departPos="random"/>
    <trip id="67" depart="67.00" from="169447019#3" to="-186874296#3" departLane="best" departSpeed="max" departPos="random"/>
    <trip id="68" depart="68.00" from="150608626#1" to="60110812#1" departLane="best" departSpeed="max" departPos="random"/>
    <trip id="69" depart="69.00" from="159794800#1" to="175210693#10" departLane="best" departSpeed="max" departPos="random"/>
    <trip id="70" depart="70.00" from="-266509287" to="-161289132#0" departLane="best" departSpeed="max" departPos="random"/>
    <trip id="71" depart="71.00" from="46032948" to="60110726#1" departLane="best" departSpeed="max" departPos="random"/>
    <trip id="72" depart="72.00" from="176576421#1" to="261257457#0" departLane="best" departSpeed="max" departPos="random"/>
    <trip id="73" depart="73.00" from="177353857#0" to="-240367920#1" departLane="best" departSpeed="max" departPos="random"/>
    <trip id="74" depart="74.00" from="269464980" to="-26428252#0" departLane="best" departSpeed="max" departPos="random"/>
    <trip id="75" depart="75.00" from="-121399140#3" to="139358067" departLane="best" departSpeed="max" departPos="random"/>
    <trip id="76" depart="76.00" from="-159782787#5" to="42411830#0" departLane="best" departSpeed="max" departPos="random"/>
    <trip id="77" depart="77.00" from="169620654" to="200877437#0" departLane="best" departSpeed="max" departPos="random"/>
    <trip id="78" depart="78.00" from="30748082" to="42362253#0" departLane="best" departSpeed="max" departPos="random"/>
    <trip id="79" depart="79.00" from="-42363103#3" to="106620140#1" departLane="best" departSpeed="max" departPos="random"/>
    <trip id="80" depart="80.00" from="93467794#0" to="146451492#2" departLane="best" departSpeed="max" departPos="random"/>
    <trip id="81" depart="81.00" from="121904215" to="136512012#0" departLane="best" departSpeed="max" departPos="random"/>
    <trip id="82" depart="82.00" from="-60105893#1" to="159794800#2-AddedOffRampEdge" departLane="best" departSpeed="max" departPos="random"/>
    <trip id="83" depart="83.00" from="139542976#0" to="173308130#5" departLane="best" departSpeed="max" departPos="random"/>
    <trip id="84" depart="84.00" from="136597108#5" to="60110801#2" departLane="best" departSpeed="max" departPos="random"/>
    <trip id="85" depart="85.00" from="121100408#4" to="84087386#1" departLane="best" departSpeed="max" departPos="random"/>
    <trip id="86" depart="86.00" from="220917827#1" to="-277945940#1" departLane="best" departSpeed="max" departPos="random"/>
    <trip id="87" depart="87.00" from="60110716#3" to="121510222#1" departLane="best" departSpeed="max" departPos="random"/>
    <trip id="88" depart="88.00" from="-42412751#2" to="121399394" departLane="best" departSpeed="max" departPos="random"/>
    <trip id="89" depart="89.00" from="121399221" to="161288360" departLane="best" departSpeed="max" departPos="random"/>
    <trip id="90" depart="90.00" from="42412195#0" to="33639733#1" departLane="best" departSpeed="max" departPos="random"/>
    <trip id="91" depart="91.00" from="-42411721" to="121399452#2" departLane="best" departSpeed="max" departPos="random"/>
    <trip id="92" depart="92.00" from="-162983002#1" to="161455978#0" departLane="best" departSpeed="max" departPos="random"/>
    <trip id="93" depart="93.00" from="191050695#8" to="169620654" departLane="best" departSpeed="max" departPos="random"/>
    <trip id="94" depart="94.00" from="-60105882#3" to="5158566#5" departLane="best" departSpeed="max" departPos="random"/>
    <trip id="95" depart="95.00" from="169620651" to="142101066#0" departLane="best" departSpeed="max" departPos="random"/>
    <trip id="96" depart="96.00" from="4822345#10" to="23892248#2" departLane="best" departSpeed="max" departPos="random"/>
    <trip id="97" depart="97.00" from="220917827#3" to="161455978#0" departLane="best" departSpeed="max" departPos="random"/>
    <trip id="98" depart="98.00" from="283538690#8" to="120426543#2" departLane="best" departSpeed="max" departPos="random"/>
    <trip id="99" depart="99.00" from="-42366726#0" to="59189053#4" departLane="best" departSpeed="max" departPos="random"/>
    <trip id="100" depart="100.00" from="171981509#0" to="-60946721" departLane="best" departSpeed="max" departPos="random"/>
    <trip id="101" depart="101.00" from="170261267#2" to="-60110794#0" departLane="best" departSpeed="max" departPos="random"/>
    <trip id="102" depart="102.00" from="227135617#0" to="-60946813#1" departLane="best" departSpeed="max" departPos="random"/>
    <trip id="103" depart="103.00" from="138684426#0" to="136511997#2" departLane="best" departSpeed="max" departPos="random"/>
    <trip id="104" depart="104.00" from="219661658#1" to="229610038#0-AddedOffRampEdge" departLane="best" departSpeed="max" departPos="random"/>
    <trip id="105" depart="105.00" from="128686401#1" to="138684423#0" departLane="best" departSpeed="max" departPos="random"/>
    <trip id="106" depart="106.00" from="162652086" to="42412798#2" departLane="best" departSpeed="max" departPos="random"/>
    <trip id="107" depart="107.00" from="33681961#1-AddedOnRampEdge" to="55819998#1" departLane="best" departSpeed="max" departPos="random"/>
    <trip id="108" depart="108.00" from="121100408#3" to="161453432#3" departLane="best" departSpeed="max" departPos="random"/>
    <trip id="109" depart="109.00" from="146451493#2" to="42412657#1-AddedOnRampEdge" departLane="best" departSpeed="max" departPos="random"/>
    <trip id="110" depart="110.00" from="217106666#3-AddedOnRampEdge" to="121399235#1" departLane="best" departSpeed="max" departPos="random"/>
    <trip id="111" depart="111.00" from="42399034#1" to="42362822#1" departLane="best" departSpeed="max" departPos="random"/>
    <trip id="112" depart="112.00" from="159783481" to="175210678#7" departLane="best" departSpeed="max" departPos="random"/>
    <trip id="113" depart="113.00" from="80917645#4" to="240367934#2" departLane="best" departSpeed="max" departPos="random"/>
    <trip id="114" depart="114.00" from="-42355146#2" to="163822328#1" departLane="best" departSpeed="max" departPos="random"/>
    <trip id="115" depart="115.00" from="60110711#1" to="-142101053#0" departLane="best" departSpeed="max" departPos="random"/>
    <trip id="116" depart="116.00" from="217986920-AddedOnRampEdge" to="161289122#1" departLane="best" departSpeed="max" departPos="random"/>
    <trip id="117" depart="117.00" from="-60110801#9" to="-161455978#2" departLane="best" departSpeed="max" departPos="random"/>
    <trip id="118" depart="118.00" from="26679374#5" to="162546316#4-AddedOnRampEdge" departLane="best" departSpeed="max" departPos="random"/>
    <trip id="119" depart="119.00" from="103143717" to="-248637751" departLane="best" departSpeed="max" departPos="random"/>
    <trip id="120" depart="120.00" from="255512181" to="128690876#8" departLane="best" departSpeed="max" departPos="random"/>
    <trip id="121" depart="121.00" from="-161287539#3" to="-55885542#0" departLane="best" departSpeed="max" departPos="random"/>
    <trip id="122" depart="122.00" from="85480876#1" to="162970619#5" departLane="best" departSpeed="max" departPos="random"/>
    <trip id="123" depart="123.00" from="121399424" to="144929520#4" departLane="best" departSpeed="max" departPos="random"/>
    <trip id="124" depart="124.00" from="-55885545" to="42355146#1" departLane="best" departSpeed="max" departPos="random"/>
    <trip id="125" depart="125.00" from="-246106107" to="106615250#2" departLane="best" departSpeed="max" departPos="random"/>
    <trip id="126" depart="126.00" from="26679374#2" to="161296939#0" departLane="best" departSpeed="max" departPos="random"/>
    <trip id="127" depart="127.00" from="-256756375#1" to="42411425#1" departLane="best" departSpeed="max" departPos="random"/>
    <trip id="128" depart="128.00" from="55885543" to="121510226#5" departLane="best" departSpeed="max" departPos="random"/>
    <trip id="129" depart="129.00" from="239167102#4" to="182042896#1-AddedOffRampEdge" departLane="best" departSpeed="max" departPos="random"/>
    <trip id="130" depart="130.00" from="26812206#2-AddedOffRampEdge" to="249229902" departLane="best" departSpeed="max" departPos="random"/>
    <trip id="131" depart="131.00" from="5158566#5" to="150608626#0-AddedOnRampEdge" departLane="best" departSpeed="max" departPos="random"/>
    <trip id="132" depart="132.00" from="42943359#2" to="-169486003#1" departLane="best" departSpeed="max" departPos="random"/>
    <trip id="133" depart="133.00" from="121510282#5" to="163825161#2" departLane="best" departSpeed="max" departPos="random"/>
    <trip id="134" depart="134.00" from="121399428" to="-60105875" departLane="best" departSpeed="max" departPos="random"/>
    <trip id="135" depart="135.00" from="138690693" to="60110759#2" departLane="best" departSpeed="max" departPos="random"/>
    <trip id="136" depart="136.00" from="227131929#4-AddedOffRampEdge" to="-50633464" departLane="best" departSpeed="max" departPos="random"/>
    <trip id="137" depart="137.00" from="42364665#2" to="-188356148#0" departLane="best" departSpeed="max" departPos="random"/>
    <trip id="138" depart="138.00" from="-266510291#2" to="-42398776#2" departLane="best" departSpeed="max" departPos="random"/>
    <trip id="139" depart="139.00" from="87246900#2" to="217106659" departLane="best" departSpeed="max" departPos="random"/>
    <trip id="140" depart="140.00" from="-277945940#0" to="-127635198" departLane="best" departSpeed="max" departPos="random"/>
    <trip id="141" depart="141.00" from="-30748182#0" to="-136867403" departLane="best" departSpeed="max" departPos="random"/>
    <trip id="142" depart="142.00" from="173445042" to="-256756375#0" departLane="best" departSpeed="max" departPos="random"/>
    <trip id="143" depart="143.00" from="152429655#2" to="176572063" departLane="best" departSpeed="max" departPos="random"/>
    <trip id="144" depart="144.00" from="-42412632#4" to="42399103#2" departLane="best" departSpeed="max" departPos="random"/>
    <trip id="145" depart="145.00" from="161355942#1-AddedOnRampEdge" to="167651426" departLane="best" departSpeed="max" departPos="random"/>
    <trip id="146" depart="146.00" from="175210710#1" to="256756987#2" departLane="best" departSpeed="max" departPos="random"/>
    <trip id="147" depart="147.00" from="24691220#5" to="227668227#1-AddedOnRampEdge" departLane="best" departSpeed="max" departPos="random"/>
    <trip id="148" depart="148.00" from="44780843" to="-33532879#1" departLane="best" departSpeed="max" departPos="random"/>
    <trip id="149" depart="149.00" from="121399398" to="220918379#3" departLane="best" departSpeed="max" departPos="random"/>
    <trip id="150" depart="150.00" from="128690932#4" to="93467824" departLane="best" departSpeed="max" departPos="random"/>
    <trip id="151" depart="151.00" from="-121510228#2" to="-277945939#1" departLane="best" departSpeed="max" departPos="random"/>
    <trip id="152" depart="152.00" from="261257456" to="-268525881#0" departLane="best" departSpeed="max" departPos="random"/>
    <trip id="153" depart="153.00" from="240367932" to="163054835#3-AddedOnRampEdge" departLane="best" departSpeed="max" departPos="random"/>
    <trip id="154" depart="154.00" from="138690698#23" to="-121100438#6" departLane="best" departSpeed="max" departPos="random"/>
    <trip id="155" depart="155.00" from="169447019#4" to="29235183#1-AddedOnRampEdge" departLane="best" departSpeed="max" departPos="random"/>
    <trip id="156" depart="156.00" from="30064848#0" to="50633432#0" departLane="best" departSpeed="max" departPos="random"/>
    <trip id="157" depart="157.00" from="138690698#21" to="169219997" departLane="best" departSpeed="max" departPos="random"/>
    <trip id="158" depart="158.00" from="159791637#0" to="136512015#4" departLane="best" departSpeed="max" departPos="random"/>
    <trip id="159" depart="159.00" from="159791637#0" to="146451492#3" departLane="best" departSpeed="max" departPos="random"/>
    <trip id="160" depart="160.00" from="170244826" to="176576448#8" departLane="best" departSpeed="max" departPos="random"/>
    <trip id="161" depart="161.00" from="30064875#0" to="121399189#1" departLane="best" departSpeed="max" departPos="random"/>
    <trip id="162" depart="162.00" from="161298711#0" to="139339318#2" departLane="best" departSpeed="max" departPos="random"/>
    <trip id="163" depart="163.00" from="-60110822#3" to="5158566#0" departLane="best" departSpeed="max" departPos="random"/>
    <trip id="164" depart="164.00" from="-121399379#1" to="136512009#11" departLane="best" departSpeed="max" departPos="random"/>
    <trip id="165" depart="165.00" from="199903004#1-AddedOffRampEdge" to="165168943" departLane="best" departSpeed="max" departPos="random"/>
    <trip id="166" depart="166.00" from="-42412289#1" to="128690927" departLane="best" departSpeed="max" departPos="random"/>
    <trip id="167" depart="167.00" from="121510226#2-AddedOnRampEdge" to="136867415#0" departLane="best" departSpeed="max" departPos="random"/>
    <trip id="168" depart="168.00" from="161298711#1" to="119617627#1" departLane="best" departSpeed="max" departPos="random"/>
    <trip id="169" depart="169.00" from="-25207520#12" to="170261281#0" departLane="best" departSpeed="max" departPos="random"/>
    <trip id="170" depart="170.00" from="169352437#0" to="30705564#1" departLane="best" departSpeed="max" departPos="random"/>
    <trip id="171" depart="171.00" from="178787178-AddedOnRampEdge" to="161355940#1-AddedOffRampEdge" departLane="best" departSpeed="max" departPos="random"/>
    <trip id="172" depart="172.00" from="42412798#2" to="152429679#1-AddedOnRampEdge" departLane="best" departSpeed="max" departPos="random"/>
    <trip id="173" depart="173.00" from="219661658#3" to="177353873#1" departLane="best" departSpeed="max" departPos="random"/>
    <trip id="174" depart="174.00" from="187023154#2" to="-197993954" departLane="best" departSpeed="max" departPos="random"/>
    <trip id="175" depart="175.00" from="121399394" to="121781866" departLane="best" departSpeed="max" departPos="random"/>
    <trip id="176" depart="176.00" from="-42411402#2" to="-120491944#1" departLane="best" departSpeed="max" departPos="random"/>
    <trip id="177" depart="177.00" from="162983002#0" to="42412657#1" departLane="best" departSpeed="max" departPos="random"/>
    <trip id="178" depart="178.00" from="150608626#0-AddedOnRampEdge" to="29269021#1" departLane="best" departSpeed="max" departPos="random"/>
    <trip id="179" depart="179.00" from="55885442#2-AddedOnRampEdge" to="42345998#7" departLane="best" departSpeed="max" departPos="random"/>
    <trip id="180" depart="180.00" from="152429646" to="60110805#0" departLane="best" departSpeed="max" departPos="random"/>
    <trip id="181" depart="181.00" from="150522783#1" to="161296940" departLane="best" departSpeed="max" departPos="random"/>
    <trip id="182" depart="182.00" from="24804776#0" to="48050728" departLane="best" departSpeed="max" departPos="random"/>
    <trip id="183" depart="183.00" from="-29257716#1" to="217106666#0" departLane="best" departSpeed="max" departPos="random"/>
    <trip id="184" depart="184.00" from="248637755#1" to="163054834#3" departLane="best" departSpeed="max" departPos="random"/>
    <trip id="185" depart="185.00" from="-42398806#3" to="136965840#3" departLane="best" departSpeed="max" departPos="random"/>
    <trip id="186" depart="186.00" from="-42412304#1" to="136512207#1" departLane="best" departSpeed="max" departPos="random"/>
    <trip id="187" depart="187.00" from="80917648#0" to="-266509120#1" departLane="best" departSpeed="max" departPos="random"/>
    <trip id="188" depart="188.00" from="182042882#3" to="121399452#2" departLane="best" departSpeed="max" departPos="random"/>
    <trip id="189" depart="189.00" from="-30705564#0" to="170863278#9-AddedOnRampEdge" departLane="best" departSpeed="max" departPos="random"/>
    <trip id="190" depart="190.00" from="-60110827#2" to="60110815#0" departLane="best" departSpeed="max" departPos="random"/>
    <trip id="191" depart="191.00" from="-24399553#10" to="26812185#5" departLane="best" departSpeed="max" departPos="random"/>
    <trip id="192" depart="192.00" from="176576454#0" to="-181323001#1" departLane="best" departSpeed="max" departPos="random"/>
    <trip id="193" depart="193.00" from="25207520#11" to="-167649019#2" departLane="best" departSpeed="max" departPos="random"/>
    <trip id="194" depart="194.00" from="-23892248#2" to="24150838#1" departLane="best" departSpeed="max" departPos="random"/>
    <trip id="195" depart="195.00" from="-264247408#2" to="32954944#1" departLane="best" departSpeed="max" departPos="random"/>
    <trip id="196" depart="196.00" from="121100433#3" to="200978011" departLane="best" departSpeed="max" departPos="random"/>
    <trip id="197" depart="197.00" from="-162987403#1" to="227131929#3" departLane="best" departSpeed="max" departPos="random"/>
    <trip id="198" depart="198.00" from="5169015#4" to="120491964" departLane="best" departSpeed="max" departPos="random"/>
    <trip id="199" depart="199.00" from="146712556" to="60110719#0" departLane="best" departSpeed="max" departPos="random"/>
    <trip id="200" depart="200.00" from="169616152#3" to="219439624#2-AddedOffRampEdge" departLane="best" departSpeed="max" departPos="random"/>
    <trip id="201" depart="201.00" from="29269021#2" to="159791645#4" departLane="best" departSpeed="max" departPos="random"/>
    <trip id="202" depart="202.00" from="136512009#4" to="182042896#1" departLane="best" departSpeed="max" departPos="random"/>
    <trip id="203" depart="203.00" from="-50633462" to="85480875#2" departLane="best" departSpeed="max" departPos="random"/>
    <trip id="204" depart="204.00" from="243054304#0" to="121510228#2" departLane="best" departSpeed="max" departPos="random"/>
    <trip id="205" depart="205.00" from="42412289#0" to="176576441#2" departLane="best" departSpeed="max" departPos="random"/>
    <trip id="206" depart="206.00" from="60105849#0" to="-60110807#3" departLane="best" departSpeed="max" departPos="random"/>
    <trip id="207" depart="207.00" from="156469344#3" to="121988946#1" departLane="best" departSpeed="max" departPos="random"/>
    <trip id="208" depart="208.00" from="169095617#2" to="172179666#7" departLane="best" departSpeed="max" departPos="random"/>
    <trip id="209" depart="209.00" from="240367934#1" to="172180974#5-AddedOffRampEdge" departLane="best" departSpeed="max" departPos="random"/>
    <trip id="210" depart="210.00" from="-60110831#5" to="-119617629#0" departLane="best" departSpeed="max" departPos="random"/>
    <trip id="211" depart="211.00" from="-42363103#5" to="121399252" departLane="best" departSpeed="max" departPos="random"/>
    <trip id="212" depart="212.00" from="55884059#1" to="109345288" departLane="best" departSpeed="max" departPos="random"/>
    <trip id="213" depart="213.00" from="116920069#1" to="251325072#1" departLane="best" departSpeed="max" departPos="random"/>
    <trip id="214" depart="214.00" from="42412657#4-AddedOffRampEdge" to="220918380#1" departLane="best" departSpeed="max" departPos="random"/>
    <trip id="215" depart="215.00" from="-161296945#5" to="251324796#9" departLane="best" departSpeed="max" departPos="random"/>
    <trip id="216" depart="216.00" from="60105872" to="42411616#1" departLane="best" departSpeed="max" departPos="random"/>
    <trip id="217" depart="217.00" from="150522796" to="170244824#1" departLane="best" departSpeed="max" departPos="random"/>
    <trip id="218" depart="218.00" from="268525882#1" to="42412632#1" departLane="best" departSpeed="max" departPos="random"/>
    <trip id="219" depart="219.00" from="167651447#1" to="93467789" departLane="best" departSpeed="max" departPos="random"/>
    <trip id="220" depart="220.00" from="42353627#8" to="-121510282#0" departLane="best" departSpeed="max" departPos="random"/>
    <trip id="221" depart="221.00" from="-55820127#1" to="33532879#8" departLane="best" departSpeed="max" departPos="random"/>
    <trip id="222" depart="222.00" from="256756987#1" to="119980750#4" departLane="best" departSpeed="max" departPos="random"/>
    <trip id="223" depart="223.00" from="-60105882#5" to="170261252#0" departLane="best" departSpeed="max" departPos="random"/>
    <trip id="224" depart="224.00" from="22771900#2-AddedOffRampEdge" to="159794818#0" departLane="best" departSpeed="max" departPos="random"/>
    <trip id="225" depart="225.00" from="42454168#1" to="24150851" departLane="best" departSpeed="max" departPos="random"/>
    <trip id="226" depart="226.00" from="146452467" to="-248643095#0" departLane="best" departSpeed="max" departPos="random"/>
    <trip id="227" depart="227.00" from="266509125#1" to="264247407#1" departLane="best" departSpeed="max" departPos="random"/>
    <trip id="228" depart="228.00" from="121399311" to="227131928#0" departLane="best" departSpeed="max" departPos="random"/>
    <trip id="229" depart="229.00" from="29235145" to="264247408#3" departLane="best" departSpeed="max" departPos="random"/>
    <trip id="230" depart="230.00" from="-266509126#1" to="121399281#0" departLane="best" departSpeed="max" departPos="random"/>