<?xml version="1.0" encoding="UTF-8"?>

<!-- generated on Mon Jun  2 22:28:45 2014 by SUMO polyconvert Version dev-SVN-r15797
<?xml version="1.0" encoding="UTF-8"?>

<configuration xmlns:xsi="http://www.w3.org/2001/XMLSchema-instance" xsi:noNamespaceSchemaLocation="http://sumo-sim.org/xsd/polyconvertConfiguration.xsd">

    <input>
        <net-file value="SanFrancisco6.net.xml"/>
        <osm-files value="SanFrancisco6.osm"/>
    </input>

    <output>
        <output-file value="map.poly.xml"/>
    </output>

    <processing>
        <ignore-errors value="true"/>
    </processing>

</configuration>
-->

<shapes>
    <poly id="103336956" type="unknown" color="51,128,255" fill="1" layer="-1.00" shape="2150.04,3023.91 2164.86,3026.18 2158.21,3068.05 2151.30,3067.00 2154.88,3043.76 2147.17,3042.59 2150.04,3023.91"/>
    <poly id="103336957" type="unknown" color="51,128,255" fill="1" layer="-1.00" shape="2089.91,3027.18 2087.91,3043.09 2108.31,3046.12 2109.15,3041.06 2117.60,3042.45 2116.78,3047.42 2131.27,3049.62 2132.27,3043.83 2126.25,3042.84 2128.47,3029.46 2112.32,3026.80 2114.42,3014.17 2111.94,3013.77 2113.02,3007.28 2105.49,3006.04 2102.19,3005.50 2102.40,3004.22 2088.09,3001.88 2086.26,3013.04 2094.07,3014.31 2093.18,3019.73 2100.86,3020.99 2099.58,3028.76 2089.91,3027.18"/>
    <poly id="103336958" type="unknown" color="51,128,255" fill="1" layer="-1.00" shape="2083.02,3034.41 2081.70,3018.54 2048.75,3021.44 2043.55,3021.90 2038.88,3022.47 2037.50,3031.68 2034.27,3052.74 2071.17,3058.35 2072.65,3049.87 2064.42,3045.71 2065.63,3040.31 2075.44,3039.43 2075.13,3035.01 2083.02,3034.41"/>
    <poly id="103336959" type="unknown" color="51,128,255" fill="1" layer="-1.00" shape="2140.18,3069.01 2098.39,3062.59 2099.03,3058.39 2085.91,3056.43 2087.91,3043.09 2108.31,3046.12 2116.78,3047.42 2131.27,3049.62 2136.81,3050.45 2137.23,3047.61 2143.25,3048.50 2140.18,3069.01"/>
    <poly id="103336960" type="unknown" color="51,128,255" fill="1" layer="-1.00" shape="2157.65,3071.70 2158.21,3068.05 2164.86,3026.18 2170.49,2991.74 2169.00,2991.50 2152.35,2988.69 2148.47,2988.06 2046.83,2972.01 2041.12,3007.86 2038.88,3022.47 2037.50,3031.68 2034.27,3052.74 2071.17,3058.35 2098.39,3062.59 2140.18,3069.01 2157.65,3071.70"/>
    <poly id="103336961" type="unknown" color="51,128,255" fill="1" layer="-1.00" shape="2057.20,3010.87 2050.83,3009.88 2048.75,3021.44 2043.55,3021.90 2045.87,3009.03 2041.12,3007.86 2046.83,2972.01 2148.47,2988.06 2148.11,2989.90 2152.00,2990.51 2152.35,2988.69 2169.00,2991.50 2164.13,3015.99 2147.73,3013.07 2148.35,3009.08 2128.42,3005.89 2127.44,3011.06 2117.06,3009.35 2117.68,3004.29 2106.24,3002.35 2105.49,3006.04 2102.19,3005.50 2102.40,3004.22 2088.09,3001.88 2064.24,2998.56 2063.01,3006.20 2058.17,3005.58 2057.20,3010.87"/>
    <poly id="103339433" type="unknown" color="51,128,255" fill="1" layer="-1.00" shape="2738.99,3388.70 2749.82,3394.42 2762.17,3382.39 2759.60,3379.44 2755.68,3381.76 2741.61,3385.90 2739.24,3387.30 2738.99,3388.70"/>
    <poly id="103339434" type="unknown" color="51,128,255" fill="1" layer="-1.00" shape="2507.48,3238.19 2499.29,3226.04 2497.64,3227.20 2493.40,3224.11 2486.38,3213.26 2476.60,3211.55 2472.80,3214.47 2470.93,3211.64 2473.07,3210.24 2476.14,3190.85 2470.28,3181.89 2459.79,3180.06 2451.72,3226.33 2454.91,3224.35 2458.66,3229.90 2454.74,3232.34 2496.96,3239.66 2497.09,3237.90 2500.75,3238.74 2502.05,3237.34 2507.48,3238.19"/>
    <poly id="103339436" type="unknown" color="51,128,255" fill="1" layer="-1.00" shape="2721.99,3292.20 2716.48,3327.32 2712.05,3326.79 2711.93,3323.69 2700.92,3321.58 2699.19,3321.55 2699.17,3319.33 2697.06,3317.44 2682.32,3314.52 2685.14,3298.32 2679.36,3297.23 2680.83,3289.36 2682.94,3289.84 2683.39,3286.20 2721.99,3292.20"/>
    <poly id="103339440" type="unknown" color="51,128,255" fill="1" layer="-1.00" shape="2462.02,3162.91 2464.47,3148.82 2517.31,3158.08 2521.87,3165.04 2512.32,3220.36 2515.50,3220.97 2514.51,3227.08 2510.92,3226.49 2510.36,3230.58 2510.94,3231.99 2510.93,3233.40 2509.86,3234.09 2508.57,3234.56 2507.62,3234.08 2507.16,3232.67 2507.63,3231.62 2505.88,3228.90 2503.17,3228.52 2494.04,3215.78 2499.70,3180.19 2498.39,3180.19 2493.06,3183.91 2476.44,3180.39 2467.08,3166.93 2464.72,3166.57 2462.02,3162.91"/>
    <poly id="103339444" type="unknown" color="51,128,255" fill="1" layer="-1.00" shape="2692.84,3321.44 2694.04,3347.40 2699.49,3347.22 2712.79,3346.84 2712.05,3326.79 2711.93,3323.69 2700.92,3321.58 2699.19,3321.55 2692.84,3321.44"/>
    <poly id="103339449" type="unknown" color="51,128,255" fill="1" layer="-1.00" shape="2651.42,3381.13 2650.95,3364.28 2699.94,3362.91 2699.49,3347.22 2712.79,3346.84 2713.71,3379.39 2651.42,3381.13"/>
    <poly id="103339451" type="unknown" color="51,128,255" fill="1" layer="-1.00" shape="1808.27,3205.66 1815.80,3211.07 1817.16,3209.19 1815.09,3207.71 1824.60,3194.58 1833.25,3200.81 1836.85,3195.86 1822.75,3185.71 1808.27,3205.66"/>
    <poly id="114151111" type="unknown" color="51,128,255" fill="1" layer="-1.00" shape="2653.73,2520.24 2660.99,2478.05 2623.17,2471.61 2618.99,2495.96 2615.92,2513.81 2628.01,2515.87 2653.73,2520.24"/>
    <poly id="114151121" type="unknown" color="51,128,255" fill="1" layer="-1.00" shape="2927.60,2143.75 2998.95,2155.86 2996.23,2171.75 2979.97,2168.99 2977.17,2185.40 2963.83,2183.13 2959.07,2210.97 2917.31,2203.89 2927.60,2143.75"/>
    <poly id="117021463" type="unknown" color="51,128,255" fill="1" layer="-1.00" shape="785.34,3170.80 786.59,3163.77 797.05,3165.60 795.80,3172.65 785.34,3170.80"/>
    <poly id="126521651" type="unknown" color="51,128,255" fill="0" layer="-1.00" shape="3729.59,2699.92 3723.91,2706.77 3719.76,2710.69 3713.68,2717.92"/>
    <poly id="128240106" type="unknown" color="51,128,255" fill="1" layer="-1.00" shape="2446.74,3142.56 2373.22,3130.83 2359.14,3216.88 2432.51,3229.05 2446.74,3142.56"/>
    <poly id="128240107" type="unknown" color="51,128,255" fill="1" layer="-1.00" shape="3180.46,3474.13 3186.57,3461.01 3200.81,3467.61 3199.14,3471.30 3200.42,3472.26 3190.85,3492.65 3186.61,3490.63 3184.89,3484.55 3182.76,3483.67 3185.95,3476.92 3180.46,3474.13"/>
    <poly id="128240113" type="unknown" color="51,128,255" fill="1" layer="-1.00" shape="3179.99,3267.93 3226.36,3271.86 3226.74,3269.91 3180.63,3260.41 3179.33,3260.75 3178.14,3262.03 3177.77,3264.26 3178.23,3265.92 3179.99,3267.93"/>
    <poly id="128240115" type="unknown" color="51,128,255" fill="1" layer="-1.00" shape="3215.79,3398.48 3218.83,3392.05 3224.62,3394.77 3226.87,3390.03 3233.26,3393.03 3232.03,3395.62 3236.75,3397.83 3233.70,3404.26 3239.29,3406.89 3236.17,3413.46 3233.46,3412.19 3230.14,3419.21 3222.58,3415.65 3224.17,3412.28 3222.06,3411.29 3223.09,3409.12 3218.33,3406.88 3221.12,3400.99 3215.79,3398.48"/>
    <poly id="128240116" type="unknown" color="51,128,255" fill="1" layer="-1.00" shape="3165.95,3529.06 3168.11,3524.30 3170.58,3525.14 3177.05,3510.49 3186.23,3514.77 3193.29,3499.48 3184.11,3495.48 3182.15,3489.12 3177.07,3486.81 3181.78,3477.29 3176.27,3474.88 3173.57,3473.63 3163.60,3495.39 3165.87,3496.15 3165.00,3498.14 3168.15,3499.72 3157.12,3525.24 3165.95,3529.06"/>
    <poly id="128240125" type="unknown" color="51,128,255" fill="1" layer="-1.00" shape="3150.32,3295.07 3151.95,3285.48 3157.91,3286.48 3156.26,3296.07 3150.32,3295.07"/>
    <poly id="128240126" type="unknown" color="51,128,255" fill="1" layer="-1.00" shape="3150.45,3539.32 3155.62,3528.39 3166.70,3533.59 3165.72,3535.66 3168.44,3536.93 3164.26,3545.79 3150.45,3539.32"/>
    <poly id="128240127" type="unknown" color="51,128,255" fill="1" layer="-1.00" shape="3049.39,3346.69 3098.68,3337.84 3100.70,3336.36 3099.45,3328.95 3096.86,3327.64 3048.75,3336.35 3046.75,3336.97 3045.67,3338.20 3044.60,3340.31 3044.59,3342.19 3045.39,3344.31 3046.57,3345.73 3048.10,3346.68 3049.39,3346.69"/>
    <poly id="128240128" type="unknown" color="51,128,255" fill="1" layer="-1.00" shape="3173.35,3291.75 3171.71,3289.03 3171.13,3287.15 3171.03,3285.54 3172.50,3276.93 3228.19,3281.68 3231.74,3281.70 3237.88,3280.92 3242.74,3278.95 3247.82,3277.57 3251.36,3276.84 3261.27,3277.89 3262.09,3279.31 3261.60,3281.37 3173.35,3291.75"/>
    <poly id="128240130" type="unknown" color="51,128,255" fill="1" layer="-1.00" shape="3199.47,3435.69 3202.23,3429.24 3199.35,3424.70 3207.23,3408.39 3211.91,3410.77 3213.57,3410.15 3218.63,3412.42 3214.80,3421.84 3212.19,3422.72 3204.98,3438.54 3199.47,3435.69"/>
    <poly id="128240132" type="unknown" color="51,128,255" fill="1" layer="-1.00" shape="3105.44,3333.17 3104.41,3328.51 3105.73,3326.29 3159.49,3316.46 3161.86,3316.48 3164.34,3317.25 3167.04,3319.57 3168.19,3323.45 3168.18,3325.57 3166.87,3327.26 3150.09,3329.93 3149.83,3328.47 3136.09,3330.79 3136.37,3332.54 3126.21,3334.48 3125.75,3332.99 3112.99,3335.03 3112.76,3333.33 3107.21,3334.47 3105.44,3333.17"/>
    <poly id="128240133" type="unknown" color="51,128,255" fill="1" layer="-1.00" shape="3206.64,3438.66 3212.89,3425.16 3215.04,3426.13 3218.13,3419.44 3227.48,3423.74 3218.13,3443.94 3206.64,3438.66"/>
    <poly id="128240135" type="unknown" color="51,128,255" fill="1" layer="-1.00" shape="3202.48,3558.20 3205.24,3552.04 3217.83,3557.37 3219.63,3553.03 3221.04,3553.90 3224.04,3547.81 3220.38,3545.98 3222.41,3542.23 3223.50,3539.17 3223.87,3536.29 3223.89,3533.06 3223.33,3529.70 3222.40,3526.87 3221.00,3524.16 3219.83,3521.52 3217.95,3519.16 3215.84,3517.27 3213.14,3515.76 3208.19,3513.92 3190.48,3551.90 3194.72,3553.57 3194.18,3554.66 3202.48,3558.20"/>
    <poly id="128240136" type="unknown" color="51,128,255" fill="1" layer="-1.00" shape="3213.27,3510.11 3223.78,3487.48 3212.18,3482.14 3201.69,3504.77 3213.27,3510.11"/>
    <poly id="128240139" type="unknown" color="51,128,255" fill="1" layer="-1.00" shape="3198.67,3463.23 3184.41,3456.73 3191.31,3441.73 3196.43,3444.07 3198.47,3439.62 3207.61,3443.80 3198.67,3463.23"/>
    <poly id="128240142" type="unknown" color="51,128,255" fill="1" layer="-1.00" shape="3172.44,3529.78 3178.07,3517.35 3189.96,3522.71 3183.48,3537.00 3184.55,3537.47 3180.66,3546.04 3174.57,3543.30 3175.76,3540.68 3172.18,3539.07 3175.74,3531.26 3172.44,3529.78"/>
    <poly id="128240145" type="unknown" color="51,128,255" fill="1" layer="-1.00" shape="3255.31,3324.83 3257.13,3336.01 3261.97,3335.38 3270.43,3341.50 3272.02,3352.26 3269.17,3356.35 3271.63,3357.84 3273.78,3371.62 3272.71,3374.08 3275.88,3376.10 3277.51,3380.46 3275.35,3385.62 3269.90,3387.35 3260.82,3407.32 3261.03,3409.33 3260.32,3410.73 3258.66,3411.38 3256.66,3410.94 3255.84,3409.36 3248.55,3405.72 3249.14,3403.56 3247.26,3402.77 3246.81,3400.29 3249.20,3394.91 3251.33,3394.05 3253.25,3389.12 3248.31,3386.62 3247.16,3382.90 3249.18,3379.34 3250.71,3378.64 3248.71,3377.69 3245.17,3358.85 3242.06,3354.72 3238.50,3332.76 3239.68,3332.02 3240.39,3330.96 3241.55,3329.62 3242.28,3328.09 3242.55,3326.56 3255.31,3324.83"/>
    <poly id="128240146" type="unknown" color="51,128,255" fill="1" layer="-1.00" shape="3248.36,3433.06 3239.74,3452.88 3241.16,3453.64 3236.37,3463.32 3234.84,3462.60 3225.18,3483.90 3217.68,3480.60 3214.82,3470.88 3219.50,3462.20 3218.20,3461.67 3227.19,3440.61 3228.37,3441.28 3230.53,3436.41 3234.88,3438.43 3238.83,3429.00 3248.36,3433.06"/>
    <poly id="128240149" type="unknown" color="51,128,255" fill="1" layer="-1.00" shape="3202.29,3337.83 3212.81,3336.39 3214.93,3351.73 3216.88,3351.46 3217.53,3356.14 3222.07,3355.52 3223.29,3364.30 3226.46,3363.86 3229.46,3385.52 3229.79,3387.95 3209.63,3390.72 3202.29,3337.83"/>
    <poly id="132238432" type="unknown" color="51,128,255" fill="1" layer="-1.00" shape="3952.92,2779.77 3956.46,2752.50 3970.61,2754.64 3968.16,2769.09 3959.23,2780.62 3952.92,2779.77"/>
    <poly id="136409939" type="unknown" color="51,128,255" fill="1" layer="-1.00" shape="3723.01,2009.01 3720.22,2030.28 3749.68,2035.41 3750.36,2031.31 3767.45,2034.49 3769.78,2023.43 3770.48,2023.51 3771.73,2016.16 3762.94,2014.63 3768.74,1981.66 3765.48,1981.02 3762.01,1999.40 3754.04,1998.11 3751.42,2000.21 3738.87,2011.37 3723.01,2009.01"/>
    <poly id="144489227" type="unknown" color="51,128,255" fill="1" layer="-1.00" shape="3294.37,2370.35 3287.43,2376.49 3315.96,2381.07 3316.78,2374.24 3294.37,2370.35"/>
    <poly id="146634582" type="unknown" color="51,128,255" fill="1" layer="-1.00" shape="3489.62,2580.79 3491.09,2571.84 3485.98,2571.04 3483.15,2589.29 3482.97,2590.17 3484.04,2590.34 3483.83,2591.68 3484.94,2591.86 3484.66,2593.65 3485.47,2593.78 3487.59,2594.10 3489.62,2580.79"/>
    <poly id="146634583" type="unknown" color="51,128,255" fill="1" layer="-1.00" shape="3482.32,2596.82 3487.07,2597.55 3485.05,2610.59 3480.29,2609.86 3482.32,2596.82"/>
    <poly id="146634586" type="unknown" color="51,128,255" fill="1" layer="-1.00" shape="3485.98,2571.04 3479.01,2569.96 3476.18,2588.23 3483.15,2589.29 3485.98,2571.04"/>
    <poly id="146634587" type="unknown" color="51,128,255" fill="1" layer="-1.00" shape="3524.14,2643.16 3516.75,2642.08 3513.69,2662.93 3521.08,2664.00 3524.14,2643.16"/>
    <poly id="146634588" type="unknown" color="51,128,255" fill="1" layer="-1.00" shape="3526.56,2630.77 3519.92,2629.73 3518.33,2640.54 3524.99,2641.51 3526.56,2630.77"/>
    <poly id="146634591" type="unknown" color="51,128,255" fill="1" layer="-1.00" shape="3504.71,2591.85 3506.94,2576.68 3496.06,2575.02 3495.04,2581.61 3492.76,2596.62 3503.70,2598.30 3504.71,2591.85"/>
    <poly id="146634592" type="unknown" color="51,128,255" fill="1" layer="-1.00" shape="3527.25,2633.49 3523.67,2659.41 3526.73,2659.83 3526.06,2664.69 3536.61,2666.14 3539.59,2644.63 3532.16,2643.62 3533.44,2634.34 3527.25,2633.49"/>
    <poly id="146634594" type="unknown" color="51,128,255" fill="1" layer="-1.00" shape="3495.04,2581.61 3489.62,2580.79 3487.59,2594.10 3485.47,2593.78 3484.99,2596.88 3487.57,2597.28 3487.22,2599.62 3492.18,2600.37 3492.76,2596.62 3495.04,2581.61"/>
    <poly id="147507703" type="unknown" color="51,128,255" fill="1" layer="-1.00" shape="3506.99,2191.83 3506.11,2197.09 3517.35,2198.85 3523.65,2199.88 3524.45,2195.19 3520.49,2194.51 3520.37,2195.52 3517.51,2195.08 3516.00,2193.22 3506.99,2191.83"/>
    <poly id="147580028" type="unknown" color="51,128,255" fill="1" layer="-1.00" shape="3550.17,2155.91 3555.44,2156.81 3553.82,2166.30 3549.99,2165.65 3549.68,2167.41 3553.59,2168.08 3552.25,2175.97 3548.72,2175.37 3548.05,2179.31 3551.65,2179.92 3550.50,2186.69 3547.17,2186.13 3546.68,2189.00 3549.99,2189.55 3548.64,2197.52 3543.23,2196.61 3544.40,2189.91 3548.46,2166.13 3550.17,2155.91"/>
    <poly id="148666771" type="unknown" color="51,128,255" fill="1" layer="-1.00" shape="3550.53,2045.66 3566.00,2048.24 3561.70,2073.80 3560.81,2079.06 3558.98,2089.93 3554.58,2089.20 3548.17,2088.13 3543.51,2087.34 3546.06,2072.21 3548.45,2057.99 3550.53,2045.66"/>
    <poly id="148666773" type="unknown" color="51,128,255" fill="1" layer="-1.00" shape="3596.69,2109.89 3605.74,2111.17 3604.92,2116.29 3619.73,2118.73 3627.34,2120.00 3625.79,2129.23 3636.45,2131.01 3641.14,2104.01 3628.26,2101.91 3619.61,2100.49 3608.96,2098.83 3596.69,2109.89"/>
    <poly id="148666775" type="unknown" color="51,128,255" fill="1" layer="-1.00" shape="3594.34,2139.19 3600.93,2140.29 3604.92,2116.29 3598.33,2115.21 3594.34,2139.19"/>
    <poly id="148666776" type="unknown" color="51,128,255" fill="1" layer="-1.00" shape="3541.02,2086.93 3543.56,2071.80 3528.24,2069.24 3525.68,2084.37 3541.02,2086.93"/>
    <poly id="148666777" type="unknown" color="51,128,255" fill="1" layer="-1.00" shape="3532.70,2042.68 3550.53,2045.66 3548.45,2057.99 3530.62,2055.02 3532.70,2042.68"/>
    <poly id="148666779" type="unknown" color="51,128,255" fill="1" layer="-1.00" shape="3546.11,2100.34 3552.48,2101.40 3554.19,2091.23 3547.83,2090.17 3546.11,2100.34"/>
    <poly id="148666780" type="unknown" color="51,128,255" fill="1" layer="-1.00" shape="3561.70,2073.80 3574.24,2075.90 3578.54,2050.33 3566.00,2048.24 3561.70,2073.80"/>
    <poly id="148666781" type="unknown" color="51,128,255" fill="1" layer="-1.00" shape="3560.81,2079.06 3573.11,2081.12 3571.28,2091.98 3558.98,2089.93 3560.81,2079.06"/>
    <poly id="148666783" type="unknown" color="51,128,255" fill="1" layer="-1.00" shape="3530.62,2055.02 3548.45,2057.99 3546.06,2072.21 3543.56,2071.80 3528.24,2069.24 3530.62,2055.02"/>
    <poly id="148666786" type="unknown" color="51,128,255" fill="1" layer="-1.00" shape="3574.24,2075.90 3573.71,2079.08 3579.72,2080.08 3584.56,2051.33 3578.54,2050.33 3574.24,2075.90"/>
    <poly id="148666787" type="unknown" color="51,128,255" fill="1" layer="-1.00" shape="3573.11,2081.12 3579.41,2082.04 3579.72,2080.08 3584.56,2051.33 3608.34,2055.69 3605.86,2069.81 3578.42,2093.22 3571.28,2091.98 3573.11,2081.12"/>
    <poly id="151980462" type="unknown" color="51,128,255" fill="1" layer="-1.00" shape="3310.12,2168.28 3318.03,2169.57 3318.33,2167.74 3341.08,2171.46 3340.78,2173.30 3349.76,2174.77 3353.18,2154.03 3343.46,2152.44 3343.21,2153.94 3299.26,2146.76 3297.40,2158.14 3301.36,2158.78 3301.59,2157.40 3311.64,2159.05 3310.12,2168.28"/>
    <poly id="153269396" type="unknown" color="51,128,255" fill="0" layer="-1.00" shape="4378.95,2721.97 4199.50,2593.59 4187.47,2588.64 4176.15,2586.28 4150.51,2622.82 4150.24,2626.47 4155.07,2633.17 4161.99,2639.76 4341.06,2766.25 4342.76,2769.01 4342.98,2771.93 4318.17,2805.60 4316.08,2806.81 4313.73,2806.20 4216.81,2736.28 4213.40,2735.60 4157.34,2696.24 4128.25,2738.33 4282.42,2856.10 4251.24,2895.33 4080.65,2766.59 4048.37,2762.63 4038.27,2776.47 4088.88,3186.76 4040.23,3230.09 3876.68,3048.46 3822.71,3098.54 3918.48,3248.13 3881.30,3271.97 3777.32,3108.78 3741.66,3130.41 3708.28,3152.73 3778.04,3350.31 3734.87,3367.34 3664.36,3167.50 3660.58,3159.72 3655.53,3142.08 3603.88,3172.38 3581.44,3493.52 3572.55,3492.92 3524.42,3489.65 3520.27,3489.37 3536.93,3244.94 3472.44,3271.55 3465.83,3255.48 3461.20,3258.05 3464.36,3265.69 3462.83,3271.01 3457.12,3273.34 3455.77,3277.10 3459.18,3277.98 3458.30,3282.17"/>
    <poly id="153269402" type="unknown" color="51,128,255" fill="0" layer="-1.00" shape="1144.87,3239.60 1160.02,3270.94 1222.29,3242.63"/>
    <poly id="161382302" type="unknown" color="51,128,255" fill="1" layer="-1.00" shape="3268.95,2057.41 3271.36,2042.55 3242.26,2037.86 3239.84,2052.72 3262.36,2056.35 3268.95,2057.41"/>
    <poly id="16140759" type="unknown" color="51,128,255" fill="0" layer="-1.00" shape="1009.47,9962.37 993.30,9967.13 981.00,9995.86"/>
    <poly id="161504253" type="unknown" color="51,128,255" fill="1" layer="-1.00" shape="904.14,2194.64 900.91,2194.10 900.84,2194.45 894.43,2193.38 889.80,2192.60 888.89,2197.97 887.56,2205.80 889.53,2206.13 887.00,2221.04 899.31,2223.11 902.32,2205.40 903.27,2199.81 904.14,2194.64"/>
    <poly id="161843741" type="unknown" color="51,128,255" fill="1" layer="-1.00" shape="2543.28,2671.13 2536.40,2712.46 2537.59,2712.66 2540.62,2713.15 2551.94,2715.02 2554.26,2715.40 2560.30,2716.41 2567.17,2675.07 2543.28,2671.13"/>
    <poly id="161843742" type="unknown" color="51,128,255" fill="1" layer="-1.00" shape="3307.84,2656.05 3305.51,2655.66 3303.57,2655.34 3289.62,2653.03 3287.86,2663.61 3295.92,2664.94 3298.89,2665.44 3303.91,2666.27 3309.70,2667.23 3311.47,2656.65 3310.03,2656.41 3307.84,2656.05"/>
    <poly id="161843744" type="unknown" color="51,128,255" fill="1" layer="-1.00" shape="2838.07,2463.32 2775.12,2452.77 2772.08,2470.77 2769.03,2488.82 2822.95,2497.86 2822.58,2500.05 2849.65,2504.59 2853.06,2484.41 2835.02,2481.38 2838.07,2463.32"/>
    <poly id="161843746" type="unknown" color="51,128,255" fill="1" layer="-1.00" shape="2658.22,2539.53 2650.76,2538.40 2644.25,2580.63 2641.62,2597.87 2638.00,2621.28 2680.76,2627.81 2690.30,2565.76 2655.01,2560.37 2658.22,2539.53"/>
    <poly id="161843748" type="unknown" color="51,128,255" fill="1" layer="-1.00" shape="2686.13,2572.54 2682.04,2600.02 2644.40,2594.46 2648.50,2566.98 2686.13,2572.54"/>
    <poly id="161843749" type="unknown" color="51,128,255" fill="1" layer="-1.00" shape="2814.37,2494.59 2818.46,2470.61 2775.99,2463.41 2771.90,2487.40 2814.37,2494.59"/>
    <poly id="161843750" type="unknown" color="51,128,255" fill="1" layer="-1.00" shape="2825.03,2496.21 2826.97,2484.36 2850.35,2488.15 2848.41,2499.99 2825.03,2496.21"/>
    <poly id="162056245" type="unknown" color="51,128,255" fill="1" layer="-1.00" shape="3242.93,2213.28 3269.23,2217.79 3268.02,2224.86 3272.60,2225.64 3266.42,2261.41 3235.54,2256.11 3242.93,2213.28"/>
    <poly id="162056250" type="unknown" color="51,128,255" fill="1" layer="-1.00" shape="3189.71,2096.84 3129.88,2087.13 3123.66,2124.82 3163.14,2131.27 3164.50,2123.06 3169.70,2123.91 3169.46,2125.42 3184.59,2127.89 3189.71,2096.84"/>
    <poly id="162056251" type="unknown" color="51,128,255" fill="1" layer="-1.00" shape="3268.05,2153.55 3261.28,2194.93 3281.34,2198.19 3302.51,2201.64 3305.85,2180.86 3308.02,2167.64 3309.23,2160.23 3268.05,2153.55"/>
    <poly id="162056253" type="unknown" color="51,128,255" fill="1" layer="-1.00" shape="3174.21,2094.30 3189.71,2096.84 3184.59,2127.89 3169.46,2125.42 3169.70,2123.91 3164.50,2123.06 3163.14,2131.27 3123.66,2124.82 3129.88,2087.13 3141.38,2089.02 3139.59,2099.88 3135.52,2099.22 3134.16,2107.48 3165.30,2112.57 3168.01,2096.14 3173.75,2097.08 3174.21,2094.30"/>
    <poly id="165579428" type="unknown" color="51,128,255" fill="1" layer="-1.00" shape="2119.43,3526.93 2114.71,3523.07 2109.09,3517.51 2105.80,3513.51 2109.84,3509.83 2114.04,3512.92 2119.93,3518.88 2123.22,3522.89 2119.43,3526.93"/>
    <poly id="165579429" type="unknown" color="51,128,255" fill="1" layer="-1.00" shape="2242.62,3395.76 2242.74,3399.73 2241.01,3406.72 2238.28,3414.87 2233.62,3424.25 2224.91,3438.07 2216.70,3448.25 2206.61,3457.81 2193.56,3467.50 2191.19,3468.89 2189.27,3468.95 2187.51,3467.87 2186.84,3466.39 2186.97,3464.28 2192.38,3448.79 2198.60,3436.02 2206.11,3424.55 2216.69,3412.15 2224.27,3404.39 2230.25,3399.51 2235.20,3395.83 2238.03,3394.03 2241.24,3393.25 2242.62,3395.76"/>
    <poly id="165579430" type="unknown" color="51,128,255" fill="1" layer="-1.00" shape="2178.75,3457.05 2177.34,3462.37 2175.63,3466.44 2172.17,3472.30 2159.44,3488.44 2153.73,3493.93 2152.20,3494.39 2151.15,3493.80 2150.56,3492.74 2150.57,3491.33 2153.79,3485.11 2166.18,3467.44 2170.87,3462.39 2174.30,3459.79 2178.75,3457.05"/>
    <poly id="165580087" type="unknown" color="51,128,255" fill="1" layer="-1.00" shape="2191.65,3414.12 2193.66,3412.36 2192.03,3409.17 2189.11,3405.16 2186.48,3401.97 2185.09,3397.25 2180.89,3393.36 2176.22,3392.81 2173.61,3391.33 2170.41,3390.95 2170.97,3394.01 2172.46,3397.14 2173.31,3401.83 2177.15,3405.50 2181.22,3406.30 2184.66,3409.48 2188.77,3412.57 2191.65,3414.12"/>
    <poly id="165585930" type="unknown" color="51,128,255" fill="1" layer="-1.00" shape="2169.77,3429.31 2168.46,3433.30 2166.87,3436.06 2162.32,3441.14 2141.16,3460.01 2119.07,3478.61 2114.03,3481.93 2112.19,3482.27 2110.81,3481.74 2109.43,3480.49 2108.67,3479.31 2108.44,3477.96 2108.69,3476.49 2113.12,3471.17 2134.29,3450.61 2156.88,3432.53 2161.14,3429.87 2163.62,3428.47 2167.54,3427.02 2169.77,3429.31"/>
    <poly id="165586834" type="unknown" color="51,128,255" fill="1" layer="-1.00" shape="2204.48,3399.62 2199.29,3394.95 2220.70,3369.68 2228.80,3361.68 2234.95,3359.36 2233.49,3366.64 2226.86,3375.85 2204.48,3399.62"/>
    <poly id="165601339" type="unknown" color="51,128,255" fill="1" layer="-1.00" shape="2711.60,3445.32 2702.22,3455.85 2694.09,3463.88 2681.68,3474.40 2665.73,3487.16 2645.97,3501.70 2639.19,3505.48 2644.09,3499.69 2662.12,3483.11 2678.00,3470.06 2690.35,3459.74 2699.40,3452.77 2711.60,3445.32"/>
    <poly id="166222997" type="unknown" color="51,128,255" fill="1" layer="-1.00" shape="3693.49,2179.69 3690.24,2197.75 3697.54,2199.05 3698.65,2192.88 3700.78,2180.99 3693.49,2179.69"/>
    <poly id="166284928" type="unknown" color="51,128,255" fill="1" layer="-1.00" shape="2782.94,2810.59 2796.75,2812.88 2799.70,2797.30 2798.90,2796.73 2782.94,2810.59"/>
    <poly id="167289268" type="unknown" color="51,128,255" fill="1" layer="-1.00" shape="3705.64,2194.13 3698.65,2192.88 3700.78,2180.99 3707.80,2182.23 3705.64,2194.13"/>
    <poly id="167289351" type="unknown" color="51,128,255" fill="1" layer="-1.00" shape="3705.27,2196.17 3705.64,2194.13 3707.80,2182.23 3714.78,2183.49 3712.31,2197.06 3709.52,2196.57 3709.32,2197.66 3707.76,2197.39 3707.90,2196.65 3705.27,2196.17"/>
    <poly id="16761472" type="unknown" color="51,128,255" fill="1" layer="-1.00" shape="417.40,3020.32 407.98,3076.48 939.70,3165.02 949.14,3108.86 777.78,3080.32 417.40,3020.32"/>
    <poly id="170705182" type="unknown" color="51,128,255" fill="1" layer="-1.00" shape="2634.41,2596.77 2641.62,2597.87 2644.25,2580.63 2637.04,2579.53 2634.87,2593.71 2634.41,2596.77"/>
    <poly id="173897603" type="unknown" color="51,128,255" fill="1" layer="-1.00" shape="2209.25,2005.79 2208.63,2005.68 2208.12,2008.61 2209.05,2008.77 2208.82,2010.07 2207.73,2009.88 2207.12,2013.36 2208.21,2013.56 2208.01,2014.65 2207.11,2014.49 2206.49,2018.05 2235.31,2023.07 2237.44,2010.90 2236.27,2010.70 2236.31,2010.41 2227.54,2008.88 2227.12,2011.24 2216.74,2009.44 2217.14,2007.17 2209.25,2005.79"/>
    <poly id="174814076" type="unknown" color="51,128,255" fill="1" layer="-1.00" shape="3602.78,2695.50 3602.31,2696.88 3601.40,2698.01 3600.76,2698.48 3599.39,2698.98 3597.98,2699.00 3596.61,2698.53 3595.92,2698.06 3595.00,2696.94 3594.57,2695.84 3594.48,2694.40 3594.74,2693.34 3595.50,2692.11 3596.30,2691.41 3597.63,2690.83 3598.97,2690.72 3600.38,2691.08 3601.34,2691.69 3602.56,2693.41 3602.78,2695.50"/>
    <poly id="175080539" type="unknown" color="51,128,255" fill="1" layer="-1.00" shape="2784.24,3016.23 2795.20,3017.94 2814.08,3020.88 2815.55,3011.67 2818.86,2991.01 2788.68,2985.99 2784.24,3016.23"/>
    <poly id="182804607" type="unknown" color="51,128,255" fill="1" layer="-1.00" shape="2878.70,3214.15 2873.32,3246.49 2872.19,3246.30 2870.69,3255.30 2837.64,3249.83 2837.32,3251.74 2830.14,3250.55 2831.74,3240.93 2836.82,3241.77 2837.24,3239.25 2834.87,3238.86 2834.70,3239.80 2831.79,3239.32 2833.54,3228.87 2840.88,3230.09 2840.66,3231.42 2859.09,3234.46 2862.91,3211.53 2878.70,3214.15"/>
    <poly id="182807847" type="unknown" color="51,128,255" fill="1" layer="-1.00" shape="2628.87,3047.43 2643.06,2962.70 2727.75,2976.76 2727.37,2979.01 2720.42,3020.49 2660.67,3010.56 2659.73,3016.16 2659.21,3019.27 2646.40,3017.15 2644.43,3028.93 2657.12,3031.04 2656.09,3037.24 2654.06,3049.33 2653.69,3051.55 2628.87,3047.43"/>
    <poly id="182809251" type="unknown" color="51,128,255" fill="1" layer="-1.00" shape="2672.61,3055.24 2672.68,3053.30 2674.38,3045.32 2691.67,3047.95 2693.80,3035.50 2695.46,3035.79 2691.77,3057.80 2672.61,3055.24"/>
    <poly id="182809253" type="unknown" color="51,128,255" fill="1" layer="-1.00" shape="2729.93,2979.47 2727.37,2979.01 2720.42,3020.49 2660.67,3010.56 2659.73,3016.16 2661.10,3016.19 2660.74,3018.07 2662.10,3018.08 2661.62,3020.25 2690.09,3025.28 2689.61,3026.51 2688.61,3026.41 2686.96,3035.22 2688.56,3035.59 2688.12,3037.26 2660.06,3032.76 2658.85,3037.58 2656.09,3037.24 2654.06,3049.33 2656.77,3049.73 2656.65,3050.43 2672.68,3053.30 2674.38,3045.32 2691.67,3047.95 2693.80,3035.50 2695.46,3035.79 2699.11,3036.42 2698.69,3037.70 2713.79,3039.97 2713.97,3038.53 2717.16,3039.17 2715.37,3051.83 2713.52,3062.04 2755.05,3068.21 2768.97,2984.21 2730.29,2977.59 2729.93,2979.47"/>
    <poly id="182809328" type="unknown" color="51,128,255" fill="1" layer="-1.00" shape="2556.01,2962.99 2563.68,2964.32 2563.37,2966.26 2555.12,2973.21 2537.79,2970.71 2538.75,2964.38 2539.40,2960.14 2540.41,2953.61 2541.53,2946.22 2551.49,2947.76 2548.81,2963.23 2555.82,2964.11 2556.01,2962.99"/>
    <poly id="182916017" type="unknown" color="51,128,255" fill="1" layer="-1.00" shape="2695.33,3162.77 2707.10,3089.68 2715.92,3089.54 2716.82,3083.97 2717.26,3081.24 2667.18,3073.28 2653.95,3155.80 2695.33,3162.77"/>
    <poly id="182919005" type="unknown" color="51,128,255" fill="1" layer="-1.00" shape="2294.42,2990.93 2295.25,2986.14 2295.65,2983.86 2298.65,2966.51 2325.75,2970.90 2325.39,2973.14 2326.51,2973.32 2325.70,2978.35 2324.41,2978.16 2321.63,2995.28 2294.42,2990.93"/>
    <poly id="182919173" type="unknown" color="51,128,255" fill="1" layer="-1.00" shape="2106.38,2981.46 2102.40,3004.22 2088.09,3001.88 2064.24,2998.56 2063.01,3006.20 2058.17,3005.58 2057.20,3010.87 2050.83,3009.88 2045.87,3009.03 2041.12,3007.86 2046.83,2972.01 2106.38,2981.46"/>
    <poly id="182919854" type="unknown" color="51,128,255" fill="1" layer="-1.00" shape="2941.92,2842.42 2912.95,2837.40 2911.76,2844.26 2912.03,2844.30 2916.41,2845.06 2915.56,2849.94 2911.18,2849.18 2910.15,2855.10 2938.83,2860.06 2941.92,2842.42"/>
    <poly id="185739081" type="unknown" color="51,128,255" fill="1" layer="-1.00" shape="1066.40,2667.16 1066.95,2665.75 1068.54,2660.83 1069.82,2657.29 1071.44,2653.66 1072.85,2649.80 1074.81,2645.49 1076.17,2642.38 1077.36,2639.92 1079.10,2636.06 1081.53,2630.38 1082.82,2625.60 1084.23,2619.46 1085.87,2612.29 1086.69,2608.88 1087.39,2606.95 1105.10,2609.68 1107.11,2600.23 1122.99,2602.95 1123.93,2598.17 1140.28,2600.67 1125.47,2674.16 1125.03,2676.79 1066.40,2667.16"/>
    <poly id="185739650" type="unknown" color="51,128,255" fill="1" layer="-1.00" shape="1122.48,2601.17 1125.89,2583.46 1114.02,2581.75 1111.07,2599.14 1122.48,2601.17"/>
    <poly id="18583270" type="unknown" color="51,128,255" fill="1" layer="-1.00" shape="3166.92,2496.67 3169.97,2478.70 3184.51,2465.95 3217.44,2437.09 3233.45,2422.71 3266.27,2428.55 3304.64,2434.63 3300.19,2467.62 3293.28,2517.13 3236.10,2507.88 3199.97,2501.88 3166.92,2496.67"/>