<?xml version="1.0" encoding="UTF-8"?>

<!-- generated on Thu Apr 10 23:13:20 2014 by SUMO polyconvert Version dev-SVN-r15797
<?xml version="1.0" encoding="UTF-8"?>

<configuration xmlns:xsi="http://www.w3.org/2001/XMLSchema-instance" xsi:noNamespaceSchemaLocation="http://sumo-sim.org/xsd/polyconvertConfiguration.xsd">

    <input>
        <net-file value="SanFrancisco3.net.xml"/>
        <osm-files value="SanFrancisco3.osm"/>
    </input>

    <output>
        <output-file value="SanFrancisco3.poly.xml"/>
    </output>

</configuration>
-->

<shapes>
    <poly id="117020457" type="unknown" color="51,128,255" fill="1" layer="-1.00" shape="1862.70,1632.17 1865.76,1635.82 1872.00,1630.66 1868.94,1626.99 1862.70,1632.17"/>
    <poly id="118481248" type="unknown" color="51,128,255" fill="1" layer="-1.00" shape="2332.53,951.95 2340.24,902.35 2357.06,904.93 2356.64,907.65 2393.15,913.28 2392.72,916.04 2396.45,916.63 2393.62,933.36 2391.30,933.01 2387.05,960.36 2332.53,951.95"/>
    <poly id="124670712" type="unknown" color="51,128,255" fill="1" layer="-1.00" shape="2177.55,1203.91 2210.66,1209.41 2204.21,1247.93 2171.06,1242.31 2177.55,1203.91"/>
    <poly id="124670713" type="unknown" color="51,128,255" fill="1" layer="-1.00" shape="2133.67,1235.62 2139.68,1198.14 2174.44,1203.67 2167.99,1241.60 2133.67,1235.62"/>
    <poly id="148481438" type="unknown" color="51,128,255" fill="1" layer="-1.00" shape="2455.54,956.45 2453.54,968.20 2389.54,957.43 2393.62,933.36 2396.45,916.63 2398.15,906.65 2462.15,917.42 2458.09,941.40 2455.54,956.45"/>
    <poly id="148481441" type="unknown" color="51,128,255" fill="1" layer="-1.00" shape="2494.67,947.54 2492.11,962.59 2455.54,956.45 2458.09,941.40 2494.67,947.54"/>
    <poly id="148481443" type="unknown" color="51,128,255" fill="1" layer="-1.00" shape="2602.49,945.06 2604.58,945.56 2607.04,947.28 2608.37,949.50 2608.73,952.64 2607.34,955.97 2605.10,957.83 2602.12,958.59 2598.68,957.74 2596.44,955.75 2595.34,953.30 2595.31,950.44 2597.21,946.98 2599.77,945.41 2602.49,945.06"/>
    <poly id="148481446" type="unknown" color="51,128,255" fill="1" layer="-1.00" shape="2625.76,1050.45 2630.55,1021.72 2620.95,1020.13 2621.08,1019.29 2616.21,1018.48 2616.15,1018.85 2611.28,1048.06 2625.76,1050.45"/>
    <poly id="148484478" type="unknown" color="51,128,255" fill="1" layer="-1.00" shape="2754.13,961.42 2744.62,1017.65 2728.81,1014.99 2728.56,1016.50 2696.93,1011.12 2695.99,1010.96 2696.43,1008.37 2694.36,1008.02 2696.16,997.38 2688.98,996.18 2690.08,989.64 2697.27,990.85 2699.11,979.92 2700.97,980.23 2702.44,972.64 2702.52,972.20 2718.67,975.02 2718.12,978.37 2710.49,977.08 2709.70,981.70 2727.32,984.65 2724.34,1002.34 2729.54,1003.22 2732.36,986.53 2736.02,965.16 2734.83,964.98 2736.11,957.72 2736.43,957.13 2748.01,958.85 2747.75,960.35 2754.13,961.42"/>
    <poly id="156137905" type="unknown" color="51,128,255" fill="1" layer="-1.00" shape="1024.67,1701.93 1110.10,1183.07 3117.02,1518.35 3001.53,2212.44 3000.44,2218.97 2983.35,2321.72 1140.31,2015.68 1110.95,2010.82 1099.90,2016.49 1077.69,2015.04 1081.62,1953.45 1105.23,1954.99 1134.78,1727.73 1024.67,1701.93"/>
    <poly id="160705972" type="unknown" color="51,128,255" fill="1" layer="-1.00" shape="2260.77,1620.28 2218.36,1612.89 2215.05,1633.09 2215.58,1633.20 2220.47,1634.00 2224.52,1634.64 2231.76,1635.83 2257.44,1640.03 2258.03,1636.24 2259.28,1629.07 2262.25,1629.56 2263.50,1622.25 2260.52,1621.74 2260.77,1620.28"/>
    <poly id="160705973" type="unknown" color="51,128,255" fill="1" layer="-1.00" shape="2510.67,1531.97 2455.63,1523.58 2464.83,1467.02 2392.06,1455.39 2382.87,1512.32 2268.11,1493.96 2255.64,1571.24 2452.49,1602.74 2449.02,1624.04 2364.08,1609.50 2356.86,1649.56 2458.83,1665.88 2457.23,1675.85 2484.81,1680.66 2510.67,1531.97"/>
    <poly id="160833245" type="unknown" color="51,128,255" fill="1" layer="-1.00" shape="1335.27,659.64 1336.95,661.01 1338.68,661.79 1403.10,671.80 1489.50,686.97 1621.24,708.75 1607.80,785.64 1693.59,800.17 1707.12,722.47 1745.72,728.29 1756.99,662.26 1631.54,643.15 1596.29,644.58 1577.72,645.50 1561.85,648.32 1538.39,628.49 1487.74,611.15 1378.20,598.00 1335.27,659.64"/>
    <poly id="160833249" type="unknown" color="51,128,255" fill="1" layer="-1.00" shape="1293.91,1357.16 1267.62,1353.15 1265.36,1367.80 1270.48,1368.58 1269.72,1373.49 1272.09,1373.86 1271.66,1376.63 1282.65,1378.31 1283.01,1376.01 1285.39,1376.38 1286.19,1371.22 1291.61,1372.05 1293.91,1357.16"/>
    <poly id="160833250" type="unknown" color="51,128,255" fill="1" layer="-1.00" shape="1887.79,815.12 1869.48,812.06 1857.55,808.46 1840.64,800.58 1828.14,792.57 1816.53,785.45 1805.20,780.24 1793.72,775.76 1762.78,769.64 1755.53,813.00 1651.82,796.67 1644.43,841.34 1664.50,844.58 1655.61,901.45 1624.49,896.78 1618.02,938.31 1682.01,948.22 1668.18,1009.79 1702.01,1015.62 1707.22,985.21 1754.98,993.84 1743.17,1065.95 1807.36,1076.46 1812.75,1046.69 1847.40,1052.06 1862.55,957.75 1906.64,965.29 1910.04,943.81 1866.12,936.81 1873.83,897.81 1887.79,815.12"/>
    <poly id="160833254" type="unknown" color="51,128,255" fill="1" layer="-1.00" shape="1922.21,859.19 1924.12,846.78 1942.72,849.65 1943.93,841.84 1943.10,841.72 1944.24,834.31 1926.88,831.65 1927.69,826.39 1907.60,823.31 1904.44,843.65 1908.96,844.34 1907.02,856.86 1922.21,859.19"/>
    <poly id="160833257" type="unknown" color="51,128,255" fill="1" layer="-1.00" shape="2045.08,896.37 2050.80,861.13 2082.77,866.27 2077.05,901.51 2045.08,896.37"/>
    <poly id="160833259" type="unknown" color="51,128,255" fill="1" layer="-1.00" shape="2043.32,893.85 2045.99,878.03 2019.14,873.53 2016.46,889.35 2043.32,893.85"/>
    <poly id="16751737" type="unknown" color="51,128,255" fill="1" layer="-1.00" shape="1794.09,1516.06 1762.84,1686.71 2025.56,1731.94 2041.59,1646.20 2057.43,1561.48 1924.60,1538.57 1794.09,1516.06"/>
    <poly id="16751838" type="unknown" color="51,128,255" fill="1" layer="-1.00" shape="2675.00,1564.29 2645.24,1734.19 2912.76,1779.58 2926.17,1707.30 2944.02,1611.20 2808.20,1588.74 2784.16,1584.76 2675.00,1564.29"/>
    <poly id="175000613" type="unknown" color="51,128,255" fill="1" layer="-1.00" shape="2781.23,920.78 2787.51,889.09 2788.67,883.31 2815.99,888.69 2812.71,905.21 2799.96,902.71 2798.04,912.38 2812.37,915.21 2813.07,911.64 2836.69,916.29 2834.33,928.14 2808.17,922.98 2807.58,925.96 2784.60,921.45 2781.23,920.78"/>
    <poly id="179379099" type="unknown" color="51,128,255" fill="1" layer="-1.00" shape="2002.92,1147.12 2008.24,1148.00 2008.47,1146.59 2037.97,1151.46 2037.74,1152.87 2043.11,1153.76 2043.83,1149.11 2047.50,1149.68 2048.40,1143.88 2044.73,1143.31 2045.41,1138.86 2032.86,1136.80 2032.95,1136.24 2018.26,1133.83 2018.17,1134.39 2005.20,1132.26 2002.92,1147.12"/>
    <poly id="197355959" type="unknown" color="51,128,255" fill="1" layer="-1.00" shape="2260.36,828.92 2298.15,835.01 2298.97,829.99 2300.09,830.16 2305.33,797.89 2265.42,791.46 2260.23,823.38 2261.24,823.54 2260.36,828.92"/>
    <poly id="197355961" type="unknown" color="51,128,255" fill="1" layer="-1.00" shape="1973.61,782.66 2000.08,786.52 2003.84,760.95 1977.37,757.09 1973.61,782.66"/>
    <poly id="197355962" type="unknown" color="51,128,255" fill="1" layer="-1.00" shape="1916.13,773.49 1928.90,693.47 2017.84,707.54 2017.17,711.76 2023.37,712.75 2020.62,729.99 1944.39,717.92 1942.75,728.22 1945.14,728.60 1942.24,746.76 1940.54,746.48 1939.57,752.58 1966.55,756.85 1962.72,780.87 1916.13,773.49"/>
    <poly id="197374076" type="unknown" color="51,128,255" fill="1" layer="-1.00" shape="2172.26,1549.05 2173.84,1549.82 2207.87,1555.71 2208.32,1555.31 2209.87,1546.47 2209.30,1546.38 2209.67,1544.21 2173.89,1538.29 2172.26,1549.05"/>
    <poly id="197463897" type="unknown" color="51,128,255" fill="1" layer="-1.00" shape="3193.40,1305.59 3163.95,1300.39 3170.25,1265.06 3199.69,1270.25 3193.40,1305.59"/>
    <poly id="201515521" type="unknown" color="51,128,255" fill="1" layer="-1.00" shape="1496.06,726.15 1489.93,761.08 1498.37,762.55 1499.00,758.94 1504.96,759.97 1510.47,728.65 1496.06,726.15"/>
    <poly id="201515524" type="unknown" color="51,128,255" fill="1" layer="-1.00" shape="2232.26,811.64 2202.41,805.91 2199.52,820.85 2229.37,826.58 2232.26,811.64"/>
    <poly id="212214154" type="unknown" color="51,128,255" fill="1" layer="-1.00" shape="2868.51,1140.28 2886.67,1143.58 2894.63,1092.04 2886.73,1090.69 2876.39,1093.57 2868.51,1140.28"/>
    <poly id="212214155" type="unknown" color="51,128,255" fill="1" layer="-1.00" shape="3126.64,1145.54 3165.64,1152.07 3168.67,1134.08 3135.82,1128.58 3129.67,1127.55 3126.64,1145.54"/>
    <poly id="212214157" type="unknown" color="51,128,255" fill="1" layer="-1.00" shape="2772.90,1128.14 2786.65,1130.34 2795.40,1076.11 2776.26,1073.05 2771.93,1099.84 2777.33,1100.71 2772.90,1128.14"/>
    <poly id="214060551" type="unknown" color="51,128,255" fill="1" layer="-1.00" shape="2824.91,1199.83 2860.94,1204.94 2862.93,1191.04 2826.90,1185.92 2824.91,1199.83"/>
    <poly id="219058164" type="unknown" color="51,128,255" fill="1" layer="-1.00" shape="2505.60,660.71 2411.44,646.02 2392.00,775.03 2457.87,857.28 2473.92,859.73 2505.60,660.71"/>
    <poly id="224771150" type="unknown" color="51,128,255" fill="1" layer="-1.00" shape="2159.48,1646.56 2181.62,1650.20 2181.36,1652.90 2183.84,1653.63 2183.23,1657.62 2186.65,1657.41 2188.54,1656.48 2190.80,1654.96 2191.76,1652.27 2195.23,1629.32 2186.63,1627.86 2167.75,1624.67 2163.30,1623.95 2163.24,1624.77 2161.30,1636.73 2160.39,1640.94 2159.48,1646.56"/>
    <poly id="224940569" type="unknown" color="51,128,255" fill="1" layer="-1.00" shape="2719.44,1695.02 2710.70,1696.98 2701.30,1696.25 2695.98,1687.96 2704.49,1650.13 2743.18,1657.50 2741.03,1680.00 2732.50,1683.06 2727.31,1689.28 2719.44,1695.02"/>
    <poly id="253360375" type="unknown" color="51,128,255" fill="1" layer="-1.00" shape="2907.76,1936.75 2913.81,1901.02 2936.73,1904.88 2932.50,1929.82 2935.48,1930.31 2935.14,1931.55 2933.57,1941.17 2907.76,1936.75"/>
    <poly id="253360376" type="unknown" color="51,128,255" fill="1" layer="-1.00" shape="2933.57,1941.17 2956.15,1944.83 2957.77,1934.93 2954.97,1934.48 2956.87,1922.87 2960.20,1923.41 2961.47,1915.59 2962.31,1910.46 2942.08,1907.19 2938.01,1932.01 2935.14,1931.55 2933.57,1941.17"/>
    <poly id="253385256" type="unknown" color="51,128,255" fill="1" layer="-1.00" shape="2962.31,1910.46 2977.05,1912.75 2971.77,1945.76 2957.02,1943.32 2959.22,1930.98 2961.94,1931.35 2962.93,1923.59 2961.16,1923.35 2962.27,1917.01 2961.47,1915.59 2962.31,1910.46"/>
    <poly id="25448745" type="unknown" color="51,128,255" fill="1" layer="-1.00" shape="1952.66,1678.92 1964.18,1608.68 1981.87,1611.37 1969.88,1682.08 1952.66,1678.92"/>
    <poly id="254732724" type="unknown" color="51,128,255" fill="1" layer="-1.00" shape="2980.35,1913.73 2975.11,1945.68 2993.23,1948.49 2994.89,1937.47 2989.71,1935.78 2992.99,1915.79 2980.35,1913.73"/>
    <poly id="254732725" type="unknown" color="51,128,255" fill="1" layer="-1.00" shape="2993.23,1948.49 3010.68,1951.09 3012.18,1941.60 3010.22,1941.22 3011.92,1929.93 3014.52,1929.59 3016.20,1918.87 3002.86,1916.75 2999.24,1937.49 2994.89,1937.47 2993.23,1948.49"/>
    <poly id="255316924" type="unknown" color="51,128,255" fill="1" layer="-1.00" shape="3092.84,1952.72 3100.75,1953.95 3102.18,1944.93 3100.52,1944.67 3101.00,1941.69 3102.44,1941.92 3103.80,1933.36 3096.08,1932.14 3095.99,1932.71 3092.84,1952.72"/>
    <poly id="255316925" type="unknown" color="51,128,255" fill="1" layer="-1.00" shape="3087.49,1930.75 3092.77,1931.61 3092.68,1932.17 3095.99,1932.71 3092.84,1952.72 3091.14,1952.44 3090.81,1954.41 3085.98,1953.62 3086.33,1951.48 3084.12,1951.11 3087.38,1931.41 3087.49,1930.75"/>
    <poly id="255316926" type="unknown" color="51,128,255" fill="1" layer="-1.00" shape="3083.66,1953.34 3076.57,1952.12 3077.41,1947.28 3078.15,1943.04 3078.48,1941.13 3080.53,1929.35 3084.77,1930.09 3084.63,1930.94 3087.38,1931.41 3084.12,1951.11 3083.66,1953.34"/>
    <poly id="255821343" type="unknown" color="51,128,255" fill="1" layer="-1.00" shape="3010.68,1951.09 3009.78,1956.85 3019.88,1958.43 3021.46,1948.94 3025.79,1920.30 3016.20,1918.87 3014.52,1929.59 3014.20,1931.58 3017.45,1932.10 3015.85,1942.18 3012.18,1941.60 3010.68,1951.09"/>
    <poly id="255821344" type="unknown" color="51,128,255" fill="1" layer="-1.00" shape="3021.46,1948.94 3034.30,1950.86 3038.63,1922.24 3025.79,1920.30 3021.46,1948.94"/>
    <poly id="255957077" type="unknown" color="51,128,255" fill="1" layer="-1.00" shape="3054.58,1955.68 3060.00,1925.64 3080.53,1929.35 3078.48,1941.13 3073.13,1940.18 3072.02,1946.32 3077.41,1947.28 3076.57,1952.12 3075.22,1959.38 3054.58,1955.68"/>
    <poly id="256487818" type="unknown" color="51,128,255" fill="1" layer="-1.00" shape="3129.61,1038.25 3121.69,1027.11 3120.11,1028.16 3117.43,1024.07 3119.06,1023.20 3110.40,1011.39 3111.22,1007.84 3112.91,1004.10 3115.48,1001.11 3117.25,999.82 3133.27,1002.49 3148.10,1005.06 3143.26,1034.85 3135.71,1034.04 3140.45,1040.07 3137.09,1042.24 3132.64,1036.12 3129.61,1038.25"/>
    <poly id="256487823" type="unknown" color="51,128,255" fill="1" layer="-1.00" shape="3109.34,941.82 3104.64,928.28 3098.24,927.18 3098.16,928.49 3097.28,928.43 3092.82,927.71 3091.34,927.57 3091.35,925.75 3085.33,925.45 3076.81,936.10 3078.47,941.43 3080.10,941.04 3082.36,947.24 3081.14,947.71 3082.53,952.16 3090.07,957.67 3098.82,954.89 3101.74,951.61 3100.80,950.12 3105.17,944.90 3106.18,945.37 3109.34,941.82"/>
    <poly id="256487824" type="unknown" color="51,128,255" fill="1" layer="-1.00" shape="2946.44,1109.68 2947.40,1103.47 2939.08,1102.20 2939.45,1099.81 2931.42,1098.58 2932.67,1090.50 2929.26,1089.98 2930.47,1082.08 2934.02,1082.63 2934.90,1076.99 2947.45,1078.90 2947.01,1081.74 2951.13,1082.38 2951.57,1079.51 2964.10,1081.43 2962.37,1092.53 2977.92,1094.91 2977.28,1099.00 2980.68,1099.52 2979.38,1107.92 2976.07,1107.41 2975.04,1114.06 2946.44,1109.68"/>
    <poly id="256487835" type="unknown" color="51,128,255" fill="1" layer="-1.00" shape="2789.51,1061.47 2801.14,1063.40 2802.92,1052.62 2791.29,1050.71 2789.51,1061.47"/>
    <poly id="256487839" type="unknown" color="51,128,255" fill="1" layer="-1.00" shape="3100.59,907.81 3097.28,928.43 3092.82,927.71 3096.13,907.11 3100.59,907.81"/>
    <poly id="256487840" type="unknown" color="51,128,255" fill="1" layer="-1.00" shape="3152.07,872.87 3156.17,873.58 3156.39,872.32 3165.65,873.92 3165.42,875.23 3170.73,876.14 3171.62,870.93 3170.10,870.66 3175.18,841.30 3158.05,838.37 3152.07,872.87"/>
    <poly id="256487852" type="unknown" color="51,128,255" fill="1" layer="-1.00" shape="2791.29,1050.71 2779.46,1048.76 2777.89,1058.24 2777.67,1059.52 2789.51,1061.47 2791.29,1050.71"/>
    <poly id="256487853" type="unknown" color="51,128,255" fill="1" layer="-1.00" shape="2777.89,1058.24 2779.46,1048.76 2779.75,1047.00 2768.51,1045.14 2766.64,1056.38 2777.89,1058.24"/>
    <poly id="256487854" type="unknown" color="51,128,255" fill="1" layer="-1.00" shape="2768.00,1085.39 2766.98,1085.23 2756.99,1083.59 2755.07,1095.18 2766.07,1096.99 2768.00,1085.39"/>
    <poly id="256487863" type="unknown" color="51,128,255" fill="1" layer="-1.00" shape="2955.64,1160.95 3016.57,1171.25 3023.74,1129.18 2962.82,1118.89 2961.00,1129.53 2959.50,1138.33 2957.92,1147.57 2955.64,1160.95"/>
    <poly id="256487866" type="unknown" color="51,128,255" fill="1" layer="-1.00" shape="2768.98,1073.17 2763.99,1072.34 2757.84,1071.33 2755.84,1083.39 2756.99,1083.59 2766.98,1085.23 2768.98,1073.17"/>
    <poly id="256487869" type="unknown" color="51,128,255" fill="1" layer="-1.00" shape="3081.33,904.84 3096.13,907.11 3100.59,907.81 3144.29,914.52 3147.35,894.80 3084.38,885.12 3081.33,904.84"/>
    <poly id="256487870" type="unknown" color="51,128,255" fill="1" layer="-1.00" shape="3094.92,1077.45 3097.11,1064.95 3084.74,1062.81 3065.72,1059.50 3065.35,1061.63 3069.35,1062.33 3069.58,1061.05 3076.20,1062.19 3075.97,1063.47 3084.71,1064.98 3084.62,1065.49 3064.53,1062.02 3064.16,1061.95 3064.31,1061.04 3064.69,1061.10 3065.12,1058.68 3056.04,1057.10 3053.73,1070.32 3094.92,1077.45"/>
    <poly id="256487871" type="unknown" color="51,128,255" fill="1" layer="-1.00" shape="2768.78,1043.49 2759.30,1041.93 2754.51,1070.79 2757.84,1071.33 2763.99,1072.34 2766.64,1056.38 2768.51,1045.14 2768.78,1043.49"/>
    <poly id="256487872" type="unknown" color="51,128,255" fill="1" layer="-1.00" shape="3091.97,1023.27 3089.40,1021.07 3081.49,1016.55 3063.76,1009.91 3060.47,1031.12 3061.12,1031.37 3071.07,1033.05 3068.46,1052.02 3066.79,1051.79 3065.72,1059.50 3084.74,1062.81 3091.97,1023.27"/>
    <poly id="256488248" type="unknown" color="51,128,255" fill="1" layer="-1.00" shape="2868.17,1105.50 2869.50,1096.79 2848.32,1093.56 2842.21,1133.39 2848.72,1134.39 2847.64,1141.34 2864.52,1143.90 2870.36,1105.84 2868.17,1105.50"/>
    <poly id="256490273" type="unknown" color="51,128,255" fill="1" layer="-1.00" shape="2762.37,1178.27 2762.45,1177.81 2767.16,1150.83 2766.10,1150.65 2766.32,1149.42 2761.54,1148.57 2761.33,1149.80 2758.56,1149.30 2758.77,1148.14 2754.58,1147.40 2754.37,1148.57 2754.30,1148.96 2752.44,1148.64 2751.26,1155.41 2750.70,1155.31 2749.03,1164.92 2749.80,1165.06 2747.94,1175.79 2762.37,1178.27"/>
    <poly id="256490282" type="unknown" color="51,128,255" fill="1" layer="-1.00" shape="2797.31,1192.10 2811.43,1194.53 2813.56,1182.26 2811.61,1181.92 2813.70,1169.91 2815.65,1170.24 2817.83,1157.71 2803.73,1155.28 2803.48,1156.70 2801.56,1167.63 2805.70,1168.34 2803.60,1180.43 2799.45,1179.72 2797.31,1192.10"/>
    <poly id="256490293" type="unknown" color="51,128,255" fill="1" layer="-1.00" shape="2762.45,1177.81 2780.33,1180.90 2780.90,1177.66 2781.70,1173.06 2782.40,1169.04 2778.12,1168.29 2778.47,1166.32 2782.74,1167.06 2784.69,1155.84 2785.19,1153.04 2783.86,1152.81 2783.99,1152.00 2780.69,1151.42 2780.55,1152.24 2778.47,1151.88 2778.62,1150.98 2775.18,1150.39 2775.03,1151.29 2772.66,1150.87 2772.77,1150.22 2769.61,1149.68 2769.50,1150.33 2768.64,1150.18 2768.49,1151.06 2767.16,1150.83 2762.45,1177.81"/>
    <poly id="256490295" type="unknown" color="51,128,255" fill="1" layer="-1.00" shape="2842.41,1163.57 2839.83,1181.83 2862.92,1185.07 2865.50,1166.81 2842.41,1163.57"/>
    <poly id="256490309" type="unknown" color="51,128,255" fill="1" layer="-1.00" shape="2830.64,1161.02 2830.67,1160.85 2819.32,1158.94 2813.85,1191.17 2825.03,1193.05 2828.78,1171.02 2837.30,1172.46 2839.01,1162.43 2830.64,1161.02"/>
    <poly id="256490574" type="unknown" color="51,128,255" fill="1" layer="-1.00" shape="2692.60,1213.66 2710.75,1216.78 2716.17,1185.47 2698.02,1182.35 2692.60,1213.66"/>
    <poly id="256490706" type="unknown" color="51,128,255" fill="1" layer="-1.00" shape="2695.17,1031.81 2692.11,1050.19 2699.60,1051.43 2702.64,1033.15 2695.17,1031.81"/>
    <poly id="256490707" type="unknown" color="51,128,255" fill="1" layer="-1.00" shape="2716.73,1064.52 2735.30,1067.60 2740.13,1038.60 2721.56,1035.53 2721.43,1036.29 2716.73,1064.52"/>
    <poly id="256490711" type="unknown" color="51,128,255" fill="1" layer="-1.00" shape="2635.06,1021.18 2634.91,1022.05 2630.06,1051.15 2644.07,1053.47 2645.12,1053.65 2645.30,1052.60 2650.03,1024.16 2650.12,1023.67 2635.06,1021.18"/>
    <poly id="256490712" type="unknown" color="51,128,255" fill="1" layer="-1.00" shape="2716.73,1064.52 2715.91,1069.40 2715.16,1073.88 2733.73,1076.95 2735.30,1067.60 2716.73,1064.52"/>
    <poly id="256490713" type="unknown" color="51,128,255" fill="1" layer="-1.00" shape="2630.55,1021.72 2625.76,1050.45 2630.06,1051.15 2634.91,1022.05 2630.62,1021.34 2630.55,1021.72"/>
    <poly id="256490714" type="unknown" color="51,128,255" fill="1" layer="-1.00" shape="2687.28,1031.04 2679.88,1029.81 2675.92,1053.61 2681.28,1054.50 2680.62,1058.43 2682.67,1058.78 2687.28,1031.04"/>
    <poly id="256490715" type="unknown" color="51,128,255" fill="1" layer="-1.00" shape="2695.34,1030.78 2687.85,1029.55 2687.60,1031.06 2687.29,1031.00 2682.67,1058.78 2681.95,1063.03 2689.75,1064.32 2692.11,1050.19 2695.17,1031.81 2695.34,1030.78"/>
    <poly id="256490716" type="unknown" color="51,128,255" fill="1" layer="-1.00" shape="2702.64,1033.15 2699.60,1051.43 2699.24,1053.62 2699.08,1053.60 2696.53,1068.88 2704.77,1070.25 2704.87,1069.63 2706.50,1059.84 2706.73,1058.44 2711.28,1059.18 2715.27,1035.26 2714.31,1035.08 2702.64,1033.15"/>
    <poly id="256490717" type="unknown" color="51,128,255" fill="1" layer="-1.00" shape="2715.27,1035.26 2711.28,1059.18 2706.73,1058.44 2706.50,1059.84 2707.10,1059.94 2705.80,1067.73 2715.91,1069.40 2716.73,1064.52 2721.43,1036.29 2715.27,1035.26"/>
    <poly id="256493667" type="unknown" color="51,128,255" fill="1" layer="-1.00" shape="2874.03,892.52 2861.68,890.51 2855.12,930.76 2867.47,932.75 2874.03,892.52"/>
    <poly id="256493699" type="unknown" color="51,128,255" fill="1" layer="-1.00" shape="2857.64,894.77 2844.25,892.64 2838.71,926.99 2852.10,929.12 2857.64,894.77"/>
    <poly id="256495494" type="unknown" color="51,128,255" fill="1" layer="-1.00" shape="2578.63,778.86 2633.02,787.54 2637.41,760.22 2622.85,757.90 2621.45,766.61 2602.21,763.53 2606.84,734.77 2586.50,731.53 2581.84,760.51 2581.60,760.47 2578.63,778.86"/>
    <poly id="256495543" type="unknown" color="51,128,255" fill="1" layer="-1.00" shape="2655.39,867.98 2682.18,871.81 2685.68,847.46 2661.89,844.07 2662.68,838.36 2647.50,836.30 2643.45,865.86 2655.46,867.48 2655.39,867.98"/>
    <poly id="256581814" type="unknown" color="51,128,255" fill="1" layer="-1.00" shape="3175.46,1323.03 3171.95,1322.45 3171.86,1322.94 3169.23,1322.50 3169.32,1322.02 3165.82,1321.44 3165.74,1321.96 3162.91,1321.49 3162.99,1320.98 3159.84,1320.46 3159.27,1323.85 3159.73,1323.92 3158.74,1329.91 3158.24,1329.83 3157.74,1332.87 3158.23,1332.95 3157.64,1336.51 3157.10,1336.42 3156.55,1339.75 3157.09,1339.84 3156.63,1342.58 3171.79,1345.08 3172.15,1342.88 3173.21,1336.54 3173.90,1332.36 3175.46,1323.03"/>
    <poly id="256582153" type="unknown" color="51,128,255" fill="1" layer="-1.00" shape="3140.14,1318.26 3125.05,1315.72 3121.97,1333.87 3137.05,1336.42 3137.86,1331.64 3138.83,1331.80 3139.50,1327.91 3138.52,1327.75 3140.14,1318.26"/>
    <poly id="256582157" type="unknown" color="51,128,255" fill="1" layer="-1.00" shape="3105.85,1348.63 3112.76,1349.81 3115.66,1332.80 3108.35,1331.57 3108.21,1331.55 3107.71,1334.45 3108.24,1334.54 3108.91,1334.66 3107.68,1341.87 3107.02,1341.76 3105.85,1348.63"/>
    <poly id="256582158" type="unknown" color="51,128,255" fill="1" layer="-1.00" shape="3145.13,1405.05 3169.32,1409.18 3169.67,1407.19 3180.23,1408.99 3180.34,1408.35 3180.70,1406.18 3181.20,1406.26 3180.84,1408.43 3191.33,1410.23 3191.11,1411.51 3195.63,1412.28 3195.54,1412.82 3208.28,1414.99 3208.37,1414.47 3212.67,1415.20 3212.89,1413.91 3223.57,1415.73 3223.84,1414.12 3235.29,1416.08 3235.69,1413.77 3238.45,1414.25 3237.77,1418.18 3237.01,1418.04 3236.37,1421.76 3262.40,1426.20 3269.14,1387.11 3151.69,1367.02 3145.13,1405.05"/>
    <poly id="256582160" type="unknown" color="51,128,255" fill="1" layer="-1.00" shape="3112.56,1351.00 3134.36,1354.68 3137.46,1336.49 3137.05,1336.42 3121.97,1333.87 3115.66,1332.80 3112.76,1349.81 3112.56,1351.00"/>
    <poly id="256582756" type="unknown" color="51,128,255" fill="1" layer="-1.00" shape="2958.60,1293.66 2957.86,1292.34 2955.74,1292.10 2955.10,1292.38 2952.18,1291.85 2951.85,1293.70 2952.14,1293.76 2948.19,1315.85 2953.75,1316.84 2956.04,1304.07 2957.22,1304.28 2958.80,1295.38 2959.36,1295.47 2959.64,1293.90 2958.60,1293.66"/>
    <poly id="256582757" type="unknown" color="51,128,255" fill="1" layer="-1.00" shape="2995.15,1294.29 2994.65,1294.22 2994.22,1292.88 2992.20,1292.58 2991.32,1293.64 2988.87,1293.28 2988.31,1291.78 2986.31,1291.46 2985.37,1292.61 2981.75,1292.05 2981.24,1290.70 2979.19,1290.41 2978.36,1291.43 2974.90,1290.93 2974.34,1289.49 2972.37,1289.23 2971.43,1290.32 2968.81,1289.90 2968.23,1288.48 2966.21,1288.26 2965.34,1289.43 2964.62,1289.26 2963.02,1298.10 2963.53,1298.20 2969.61,1299.25 2977.95,1300.54 2985.82,1301.90 2993.65,1303.20 2994.82,1302.42 2995.18,1300.51 2994.26,1299.61 2994.59,1297.43 2995.52,1297.16 2995.90,1295.13 2995.15,1294.29"/>
    <poly id="256582758" type="unknown" color="51,128,255" fill="1" layer="-1.00" shape="2991.35,1318.56 2983.19,1317.10 2975.50,1315.77 2966.97,1314.31 2961.01,1313.29 2959.70,1320.77 2989.98,1325.99 2991.35,1318.56"/>
    <poly id="256582760" type="unknown" color="51,128,255" fill="1" layer="-1.00" shape="2943.97,1316.20 2945.81,1305.89 2947.81,1306.25 2948.76,1300.93 2949.96,1300.13 2950.12,1299.05 2949.17,1297.70 2949.91,1293.75 2950.67,1293.84 2950.90,1292.26 2949.81,1291.95 2949.14,1290.75 2946.93,1290.42 2946.27,1290.66 2943.40,1290.24 2941.01,1303.20 2940.43,1306.79 2940.05,1308.87 2939.09,1315.33 2943.97,1316.20"/>
    <poly id="256582761" type="unknown" color="51,128,255" fill="1" layer="-1.00" shape="2940.05,1308.87 2928.66,1307.05 2926.48,1320.66 2937.87,1322.47 2938.98,1315.56 2939.09,1315.33 2940.05,1308.87"/>
    <poly id="256583059" type="unknown" color="51,128,255" fill="1" layer="-1.00" shape="2806.16,1299.83 2803.14,1299.34 2801.41,1309.82 2808.95,1311.07 2809.98,1304.92 2815.89,1305.90 2816.63,1301.44 2806.18,1299.72 2806.16,1299.83"/>
    <poly id="256633744" type="unknown" color="51,128,255" fill="1" layer="-1.00" shape="1869.61,900.88 1867.37,913.91 1857.05,912.01 1854.36,924.42 1865.14,926.48 1863.21,939.66 1828.42,933.47 1830.03,921.97 1830.19,920.59 1842.50,922.82 1844.89,910.71 1832.27,908.48 1834.35,895.14 1843.74,896.89 1869.61,900.88"/>
    <poly id="256633745" type="unknown" color="51,128,255" fill="1" layer="-1.00" shape="1834.46,893.13 1832.27,908.48 1799.01,903.33 1791.37,949.43 1788.01,965.62 1766.06,962.25 1767.14,956.19 1772.05,928.43 1777.01,900.45 1743.95,894.03 1747.03,878.39 1791.20,886.22 1834.46,893.13"/>
    <poly id="256633746" type="unknown" color="51,128,255" fill="1" layer="-1.00" shape="1732.98,957.41 1759.63,961.79 1761.05,955.19 1767.14,956.19 1772.05,928.43 1738.36,922.46 1732.98,957.41"/>
    <poly id="256763516" type="unknown" color="51,128,255" fill="1" layer="-1.00" shape="2388.71,791.60 2385.87,811.17 2383.12,810.97 2379.78,833.59 2385.67,833.22 2393.17,843.58 2403.60,856.55 2438.17,861.51 2439.17,859.97 2441.75,849.53 2403.93,803.47 2394.39,792.39 2388.71,791.60"/>
    <poly id="256763517" type="unknown" color="51,128,255" fill="1" layer="-1.00" shape="2346.03,847.57 2358.00,849.58 2360.94,832.28 2364.19,832.82 2361.28,850.02 2373.29,852.05 2376.04,835.77 2377.26,828.62 2350.37,824.11 2350.28,824.57 2349.94,824.51 2346.03,847.57"/>
    <poly id="256763518" type="unknown" color="51,128,255" fill="1" layer="-1.00" shape="2217.64,761.59 2216.23,770.30 2211.91,769.61 2210.80,776.45 2234.50,780.24 2235.57,773.65 2231.64,773.01 2233.21,763.26 2238.12,764.06 2238.53,761.51 2233.52,760.70 2235.44,748.82 2239.71,749.44 2240.59,743.97 2237.27,743.43 2237.46,742.27 2233.13,741.58 2233.00,742.40 2229.03,741.77 2229.15,740.96 2225.83,740.43 2225.68,741.37 2223.38,741.00 2223.53,740.07 2215.02,738.73 2214.96,739.07 2213.57,747.70 2219.62,748.67 2218.22,757.31 2213.38,756.53 2212.69,760.79 2217.64,761.59"/>
    <poly id="256763519" type="unknown" color="51,128,255" fill="1" layer="-1.00" shape="2244.30,770.20 2246.79,770.63 2247.49,766.69 2252.66,767.59 2252.16,770.46 2257.60,771.43 2257.14,774.00 2259.78,774.46 2260.25,771.85 2265.66,772.80 2268.56,756.36 2263.76,755.52 2264.55,751.08 2260.40,750.35 2259.60,754.83 2255.21,754.06 2255.59,751.98 2251.12,751.19 2251.96,746.46 2246.92,745.58 2246.11,750.16 2242.23,749.47 2239.45,765.14 2245.02,766.12 2244.30,770.20"/>
    <poly id="256763520" type="unknown" color="51,128,255" fill="1" layer="-1.00" shape="2307.72,759.22 2301.87,758.34 2301.51,760.79 2296.67,760.06 2297.31,755.83 2271.49,751.95 2267.90,775.67 2293.86,779.57 2294.69,774.05 2299.48,774.77 2298.96,778.15 2304.44,778.97 2304.00,781.85 2312.61,783.15 2313.06,780.19 2319.88,781.22 2319.37,784.60 2327.93,785.88 2328.45,782.42 2334.01,783.25 2337.01,763.46 2331.56,762.65 2331.93,760.22 2323.67,758.98 2323.29,761.48 2315.27,760.27 2315.69,757.54 2308.14,756.40 2307.72,759.22"/>
    <poly id="256763521" type="unknown" color="51,128,255" fill="1" layer="-1.00" shape="2206.78,793.02 2204.67,805.69 2233.89,810.52 2236.00,797.85 2206.78,793.02"/>
    <poly id="256763522" type="unknown" color="51,128,255" fill="1" layer="-1.00" shape="2353.43,805.98 2380.84,810.59 2383.12,810.97 2384.75,801.34 2355.06,796.35 2353.43,805.98"/>
    <poly id="256763523" type="unknown" color="51,128,255" fill="1" layer="-1.00" shape="2373.29,852.05 2390.96,855.01 2392.22,847.55 2383.82,837.08 2376.04,835.77 2373.29,852.05"/>
    <poly id="256763524" type="unknown" color="51,128,255" fill="1" layer="-1.00" shape="2206.78,793.02 2236.00,797.85 2247.97,799.83 2250.51,784.60 2209.32,777.78 2206.78,793.02"/>
    <poly id="256763525" type="unknown" color="51,128,255" fill="1" layer="-1.00" shape="2350.37,824.11 2377.26,828.62 2377.77,828.71 2380.84,810.59 2353.43,805.98 2350.37,824.11"/>
    <poly id="256763526" type="unknown" color="51,128,255" fill="1" layer="-1.00" shape="2355.06,796.35 2384.75,801.34 2386.08,801.57 2387.79,791.49 2356.77,786.29 2355.06,796.35"/>
    <poly id="256763527" type="unknown" color="51,128,255" fill="1" layer="-1.00" shape="2356.77,786.29 2387.79,791.49 2388.71,791.60 2394.39,792.39 2380.72,775.50 2359.23,771.76 2356.77,786.29"/>
    <poly id="256763528" type="unknown" color="51,128,255" fill="1" layer="-1.00" shape="2236.00,797.85 2233.89,810.52 2230.98,827.95 2245.72,830.38 2250.74,800.29 2247.97,799.83 2236.00,797.85"/>
    <poly id="256768545" type="unknown" color="51,128,255" fill="1" layer="-1.00" shape="1891.67,764.58 1899.65,717.90 1880.51,714.64 1872.51,761.33 1891.67,764.58"/>