<?xml version="1.0"?>
<!-- generated on 2014-04-10 23:02:26.155701 by $Id: randomTrips.py 15769 2014-02-27 14:07:35Z namdre $ -->
<trips>
    <trip id="0" depart="0.00" from="8919173#0" to="27054207#1" />
    <trip id="1" depart="1.00" from="225806029#7" to="12247498#0" />
    <trip id="2" depart="2.00" from="224200965#6" to="100400947#14" />
    <trip id="3" depart="3.00" from="254756525#5" to="148481435#0" />
    <trip id="4" depart="4.00" from="-224200965#8" to="-225516723" />
    <trip id="5" depart="5.00" from="8919173#3" to="25448777#1" />
    <trip id="6" depart="6.00" from="-263108751#3" to="30831505" />
    <trip id="7" depart="7.00" from="133781796#1" to="-85644941#4" />
    <trip id="8" depart="8.00" from="-8917284#2" to="-32965234#1" />
    <trip id="9" depart="9.00" from="8919251" to="86303778#1" />
    <trip id="10" depart="10.00" from="8919163#8" to="84733309#2" />
    <trip id="11" depart="11.00" from="-212214152" to="254756525#4" />
    <trip id="12" depart="12.00" from="-224316516#0" to="8919163#8" />
    <trip id="13" depart="13.00" from="254396716#5" to="-91181763#0" />
    <trip id="14" depart="14.00" from="-8915506#0" to="224200965#8" />
    <trip id="15" depart="15.00" from="36948490" to="12247498#0" />
    <trip id="16" depart="16.00" from="84733260#0" to="84733302#13" />
    <trip id="17" depart="17.00" from="-224200972#1" to="225806029#6" />
    <trip id="18" depart="18.00" from="85562509#0" to="254759909#1" />
    <trip id="19" depart="19.00" from="225806029#10" to="24335480#10" />
    <trip id="20" depart="20.00" from="100400947#10" to="254396712" />
    <trip id="21" depart="21.00" from="-206302933" to="27054207#0" />
    <trip id="22" depart="22.00" from="-225516700#0" to="24335480#10" />
    <trip id="23" depart="23.00" from="-27398066#5" to="84733307" />
    <trip id="24" depart="24.00" from="84654235#1" to="224384017#2" />
    <trip id="25" depart="25.00" from="54354579" to="100400947#9" />
    <trip id="26" depart="26.00" from="225806029#2" to="100400947#4" />
    <trip id="27" depart="27.00" from="-8920521#2" to="-8921291" />
    <trip id="28" depart="28.00" from="-225516710" to="224941795#0" />
    <trip id="29" depart="29.00" from="-8920519#2" to="224200965#5" />
    <trip id="30" depart="30.00" from="-148902178#1" to="24335480#10" />
    <trip id="31" depart="31.00" from="225806029#19" to="212214151" />
    <trip id="32" depart="32.00" from="254758120#5" to="254396707#12" />
    <trip id="33" depart="33.00" from="27398066#2" to="225806029#16" />
    <trip id="34" depart="34.00" from="142961038#5" to="84733271#4" />
    <trip id="35" depart="35.00" from="224199010#1" to="-225516700#1" />
    <trip id="36" depart="36.00" from="254759908" to="-85644919#3" />
    <trip id="37" depart="37.00" from="254396707#7" to="-224199017#6" />
    <trip id="38" depart="38.00" from="-8915071#0" to="30832342#1" />
    <trip id="39" depart="39.00" from="100400947#0" to="212214152" />
    <trip id="40" depart="40.00" from="16760568" to="225516700#0" />
    <trip id="41" depart="41.00" from="254759915#3" to="29481846#3" />
    <trip id="42" depart="42.00" from="47109077#1" to="24603666#0" />
    <trip id="43" depart="43.00" from="-224200965#6" to="133781730#1" />
    <trip id="44" depart="44.00" from="-8922564#4" to="8922564#0" />
    <trip id="45" depart="45.00" from="24335484#6" to="-254759909#2" />
    <trip id="46" depart="46.00" from="-142961038#3" to="24603666#0" />
    <trip id="47" depart="47.00" from="24335484#7" to="-32965234#0" />
    <trip id="48" depart="48.00" from="-24335484#7" to="-8920519#6" />
    <trip id="49" depart="49.00" from="-27054290#2" to="224200965#8" />
    <trip id="50" depart="50.00" from="-85644941#4" to="-25448772#0" />
    <trip id="51" depart="51.00" from="224384017#0" to="-25448777#0" />
    <trip id="52" depart="52.00" from="224316516#1" to="-25448919#2" />
    <trip id="53" depart="53.00" from="-263108751#2" to="-8915071#0" />
    <trip id="54" depart="54.00" from="-117020466#0" to="24335484#4" />
    <trip id="55" depart="55.00" from="-112408726#1" to="224200972#0" />
    <trip id="56" depart="56.00" from="8917284#0" to="-25448764#1" />
    <trip id="57" depart="57.00" from="-8919173#9" to="-225516703#0" />
    <trip id="58" depart="58.00" from="-224199010#0" to="8919251" />
    <trip id="59" depart="59.00" from="107288565#1" to="24335482#0" />
    <trip id="60" depart="60.00" from="224200965#8" to="27398071#1" />
    <trip id="61" depart="61.00" from="47109077#1" to="8917403#3" />
    <trip id="62" depart="62.00" from="85644941#3" to="-24335484#4" />
    <trip id="63" depart="63.00" from="27398072" to="224199017#6" />
    <trip id="64" depart="64.00" from="-24335480#10" to="-224316516#0" />
    <trip id="65" depart="65.00" from="85562509#0" to="-148902179#0" />
    <trip id="66" depart="66.00" from="-25448919#1" to="148481435#0" />
    <trip id="67" depart="67.00" from="84733307" to="-25448746#2" />
    <trip id="68" depart="68.00" from="225516703#1" to="254758120#3" />
    <trip id="69" depart="69.00" from="-265059753#1" to="-224200969#1" />
    <trip id="70" depart="70.00" from="-85644919#8" to="254759909#1" />
    <trip id="71" depart="71.00" from="-24335480#4" to="-225516703#1" />
    <trip id="72" depart="72.00" from="-12437582#9" to="84733302#10" />
    <trip id="73" depart="73.00" from="-224200965#2" to="85562549#2" />
    <trip id="74" depart="74.00" from="-8920521#3" to="-224199020#2" />
    <trip id="75" depart="75.00" from="12247498#0" to="254758120#5" />
    <trip id="76" depart="76.00" from="8919163#5" to="224200965#1" />
    <trip id="77" depart="77.00" from="-25448769#2" to="12437582#1" />
    <trip id="78" depart="78.00" from="-27054293" to="-24335484#3" />
    <trip id="79" depart="79.00" from="32965204#0" to="225806029#17" />
    <trip id="80" depart="80.00" from="-12437582#9" to="30831490#0" />
    <trip id="81" depart="81.00" from="254396707#8" to="-8919177" />
    <trip id="82" depart="82.00" from="47108401#3" to="8919163#4" />
    <trip id="83" depart="83.00" from="-142961038#5" to="-12437582#8" />
    <trip id="84" depart="84.00" from="24335484#5" to="36948490" />
    <trip id="85" depart="85.00" from="254756525#5" to="-8915075#0" />
    <trip id="86" depart="86.00" from="31148684#2" to="225806029#12" />
    <trip id="87" depart="87.00" from="100400947#3" to="254756525#1" />
    <trip id="88" depart="88.00" from="-27054290#7" to="-8922564#0" />
    <trip id="89" depart="89.00" from="-142961038#0" to="24603666#1" />
    <trip id="90" depart="90.00" from="-8921291" to="85644919#6" />
    <trip id="91" depart="91.00" from="8917284#2" to="-30831509" />
    <trip id="92" depart="92.00" from="8920149" to="-30832455" />
    <trip id="93" depart="93.00" from="85644919#8" to="27398071#0" />
    <trip id="94" depart="94.00" from="-84733263#1" to="32965287#0" />
    <trip id="95" depart="95.00" from="-224200969#2" to="-224384017#2" />
    <trip id="96" depart="96.00" from="84654229" to="-8917284#2" />
    <trip id="97" depart="97.00" from="-224384017#0" to="85562549#2" />
    <trip id="98" depart="98.00" from="224200965#1" to="224200965#8" />
    <trip id="99" depart="99.00" from="254759958" to="-24335481#0" />
    <trip id="100" depart="100.00" from="-46272776" to="224200965#2" />
    <trip id="101" depart="101.00" from="225806029#20" to="-31148684#1" />
    <trip id="102" depart="102.00" from="8919246#1" to="24335484#2" />
    <trip id="103" depart="103.00" from="-142961038#1" to="254756525#4" />
    <trip id="104" depart="104.00" from="25448748" to="-24335484#2" />
    <trip id="105" depart="105.00" from="225516710" to="-224941796#1" />
    <trip id="106" depart="106.00" from="224199017#0" to="12437582#5" />
    <trip id="107" depart="107.00" from="225516725" to="-225516711#0" />
    <trip id="108" depart="108.00" from="8921291" to="47108401#3" />
    <trip id="109" depart="109.00" from="8917523#2" to="-107288565#0" />
    <trip id="110" depart="110.00" from="-85644941#2" to="8917284#7" />
    <trip id="111" depart="111.00" from="8919163#4" to="-47108845" />
    <trip id="112" depart="112.00" from="117020466#2" to="224199017#4" />
    <trip id="113" depart="113.00" from="8919246#1" to="254758120#5" />
    <trip id="114" depart="114.00" from="24335484#8" to="85644919#4" />
    <trip id="115" depart="115.00" from="254759909#0" to="84733260#1" />
    <trip id="116" depart="116.00" from="85562509#2" to="27400637#0" />
    <trip id="117" depart="117.00" from="85644941#3" to="-225516724" />
    <trip id="118" depart="118.00" from="31148684#2" to="-84733263#1" />
    <trip id="119" depart="119.00" from="112408726#2" to="-8917284#8" />
    <trip id="120" depart="120.00" from="91181765#1" to="-12437582#4" />
    <trip id="121" depart="121.00" from="-84733291" to="-224200965#4" />
    <trip id="122" depart="122.00" from="-148902178#1" to="-8915075#1" />
    <trip id="123" depart="123.00" from="-27054290#5" to="8922564#4" />
    <trip id="124" depart="124.00" from="254756525#5" to="224199010#0" />
    <trip id="125" depart="125.00" from="254756525#2" to="-24335484#7" />
    <trip id="126" depart="126.00" from="100400947#4" to="8919652" />
    <trip id="127" depart="127.00" from="-27054294" to="-265059753#0" />
    <trip id="128" depart="128.00" from="-8922564#4" to="-224941795#1" />
    <trip id="129" depart="129.00" from="-30832455" to="-8919163#8" />
    <trip id="130" depart="130.00" from="-8922564#4" to="-84733306" />
    <trip id="131" depart="131.00" from="8917893#0" to="-85562549#2" />
    <trip id="132" depart="132.00" from="-133781730#2" to="254466692#1" />
    <trip id="133" depart="133.00" from="-85644919#7" to="8920519#2" />
    <trip id="134" depart="134.00" from="-25448898#0" to="8922564#4" />
    <trip id="135" depart="135.00" from="27398066#0" to="8920521#3" />
    <trip id="136" depart="136.00" from="-224200965#9" to="12437582#1" />
    <trip id="137" depart="137.00" from="212214151" to="24335480#10" />
    <trip id="138" depart="138.00" from="254756525#5" to="142961031" />
    <trip id="139" depart="139.00" from="-206302928" to="225806029#22" />
    <trip id="140" depart="140.00" from="224941795#0" to="27398071#3" />
    <trip id="141" depart="141.00" from="-85562549#3" to="27054290#0" />
    <trip id="142" depart="142.00" from="-8920521#3" to="-8917284#3" />
    <trip id="143" depart="143.00" from="-8919163#9" to="254396712" />
    <trip id="144" depart="144.00" from="254756525#5" to="24335480#10" />
    <trip id="145" depart="145.00" from="84733298" to="85644919#1" />
    <trip id="146" depart="146.00" from="-148902183#0" to="8919173#9" />
    <trip id="147" depart="147.00" from="-24335484#0" to="-224199017#6" />
    <trip id="148" depart="148.00" from="84733307" to="-85562549#0" />
    <trip id="149" depart="149.00" from="24335480#5" to="224200965#5" />
    <trip id="150" depart="150.00" from="254756525#1" to="-224200972#1" />
    <trip id="151" depart="151.00" from="-24335484#7" to="263108751#3" />
    <trip id="152" depart="152.00" from="-85562509#2" to="225806029#14" />
    <trip id="153" depart="153.00" from="-224316528" to="224941796#1" />
    <trip id="154" depart="154.00" from="84733273" to="29481846#3" />
    <trip id="155" depart="155.00" from="-224200965#0" to="-85644941#3" />
    <trip id="156" depart="156.00" from="84733316" to="-91181763#3" />
    <trip id="157" depart="157.00" from="8917056" to="-8920521#2" />
    <trip id="158" depart="158.00" from="-8921114" to="-12247497#1" />
    <trip id="159" depart="159.00" from="24335480#1" to="-24335484#3" />
    <trip id="160" depart="160.00" from="-30832455" to="224941796#1" />
    <trip id="161" depart="161.00" from="-8917805" to="-84733302#0" />
    <trip id="162" depart="162.00" from="206302935" to="-225516711#2" />
    <trip id="163" depart="163.00" from="254306573#1" to="24335484#9" />
    <trip id="164" depart="164.00" from="-27400637#0" to="-85562509#0" />
    <trip id="165" depart="165.00" from="85562549#3" to="8920521#3" />
    <trip id="166" depart="166.00" from="8919246#2" to="27398066#8" />
    <trip id="167" depart="167.00" from="224199017#4" to="-24335482#1" />
    <trip id="168" depart="168.00" from="-224199017#4" to="225806029#17" />
    <trip id="169" depart="169.00" from="84733309#0" to="16760568" />
    <trip id="170" depart="170.00" from="225516711#1" to="84733291" />
    <trip id="171" depart="171.00" from="-8920521#3" to="-85644919#5" />
    <trip id="172" depart="172.00" from="-85644941#5" to="224199017#0" />
    <trip id="173" depart="173.00" from="-85644919#8" to="-8917284#3" />
    <trip id="174" depart="174.00" from="-25448919#1" to="265059753#1" />
    <trip id="175" depart="175.00" from="-112408726#0" to="24203847" />
    <trip id="176" depart="176.00" from="-8919163#2" to="254759913" />
    <trip id="177" depart="177.00" from="84733284#0" to="254759909#4" />
    <trip id="178" depart="178.00" from="8919173#6" to="-254759909#2" />
    <trip id="179" depart="179.00" from="224941796#1" to="254306573#0" />
    <trip id="180" depart="180.00" from="-24335484#0" to="-24335484#0" />
    <trip id="181" depart="181.00" from="254396707#3" to="24335480#10" />
    <trip id="182" depart="182.00" from="224941795#1" to="84733309#0" />
    <trip id="183" depart="183.00" from="-224200972#0" to="24335480#10" />
    <trip id="184" depart="184.00" from="-85644919#5" to="-24335484#4" />
    <trip id="185" depart="185.00" from="-85644919#3" to="-12437582#7" />
    <trip id="186" depart="186.00" from="224199010#3" to="24335480#10" />
    <trip id="187" depart="187.00" from="225806029#19" to="84733299#1" />
    <trip id="188" depart="188.00" from="-254759958" to="133781793#0" />
    <trip id="189" depart="189.00" from="-8917284#2" to="225806029#17" />
    <trip id="190" depart="190.00" from="84733294#5" to="-91181763#0" />
    <trip id="191" depart="191.00" from="212214149" to="-254396712" />
    <trip id="192" depart="192.00" from="8919163#4" to="12247498#0" />
    <trip id="193" depart="193.00" from="225806029#4" to="8922564#4" />
    <trip id="194" depart="194.00" from="-8919163#3" to="-85562509#0" />
    <trip id="195" depart="195.00" from="25448780#0" to="133781730#4" />
    <trip id="196" depart="196.00" from="-225516711#1" to="-27054290#2" />
    <trip id="197" depart="197.00" from="24335480#3" to="8917301" />
    <trip id="198" depart="198.00" from="-84733302#11" to="-224199020#2" />
    <trip id="199" depart="199.00" from="254396707#7" to="30035688#0" />
    <trip id="200" depart="200.00" from="84733302#6" to="-148902178#5" />
    <trip id="201" depart="201.00" from="-27398066#5" to="-85644919#5" />
    <trip id="202" depart="202.00" from="8920519#6" to="-27054290#0" />
    <trip id="203" depart="203.00" from="-8919163#6" to="8922564#0" />
    <trip id="204" depart="204.00" from="85562549#0" to="-8922564#1" />
    <trip id="205" depart="205.00" from="-224200972#1" to="-225516725" />
    <trip id="206" depart="206.00" from="-224199017#1" to="84733291" />
    <trip id="207" depart="207.00" from="224199010#1" to="-30832342#0" />
    <trip id="208" depart="208.00" from="224200972#1" to="25448780#0" />
    <trip id="209" depart="209.00" from="-225516711#2" to="224199019#0" />
    <trip id="210" depart="210.00" from="-142961038#0" to="24335482#1" />
    <trip id="211" depart="211.00" from="84733307" to="8919246#2" />
    <trip id="212" depart="212.00" from="-85644919#5" to="262933356#4" />
    <trip id="213" depart="213.00" from="46272776" to="-25448814#1" />
    <trip id="214" depart="214.00" from="-8919173#4" to="12437582#0" />
    <trip id="215" depart="215.00" from="-12437582#9" to="254756525#5" />
    <trip id="216" depart="216.00" from="86303778#0" to="27054290#1" />
    <trip id="217" depart="217.00" from="85562549#0" to="8919246#2" />
    <trip id="218" depart="218.00" from="-8920519#1" to="263108751#3" />
    <trip id="219" depart="219.00" from="8919163#4" to="29481846#4" />
    <trip id="220" depart="220.00" from="-91181763#3" to="-224199017#1" />
    <trip id="221" depart="221.00" from="24603666#0" to="8917284#7" />
    <trip id="222" depart="222.00" from="-84733291" to="-30831679" />
    <trip id="223" depart="223.00" from="-8922564#4" to="224199017#2" />
    <trip id="224" depart="224.00" from="84733307" to="117020466#2" />
    <trip id="225" depart="225.00" from="225516711#0" to="254759915#2" />
    <trip id="226" depart="226.00" from="-224199017#5" to="254759915#3" />
    <trip id="227" depart="227.00" from="8922564#1" to="-85562549#3" />
    <trip id="228" depart="228.00" from="24335484#4" to="254759915#3" />
    <trip id="229" depart="229.00" from="263108751#0" to="215919657" />
    <trip id="230" depart="230.00" from="-85644919#3" to="262933359#2" />
    <trip id="231" depart="231.00" from="-224200969#2" to="224199019#0" />
    <trip id="232" depart="232.00" from="254396707#7" to="-117020466#2" />
    <trip id="233" depart="233.00" from="224941795#1" to="224199017#1" />
    <trip id="234" depart="234.00" from="27398072" to="8919414#0" />
    <trip id="235" depart="235.00" from="8919163#7" to="133781793#0" />
    <trip id="236" depart="236.00" from="12247498#2" to="133781730#4" />
    <trip id="237" depart="237.00" from="-84733302#12" to="84733302#5" />
    <trip id="238" depart="238.00" from="-24335480#7" to="-224199020#0" />
    <trip id="239" depart="239.00" from="84733316" to="254758120#5" />
    <trip id="240" depart="240.00" from="8922564#2" to="24603666#0" />
    <trip id="241" depart="241.00" from="-84733271#4" to="24335480#5" />
    <trip id="242" depart="242.00" from="24603666#0" to="8917523#1" />
    <trip id="243" depart="243.00" from="254758120#0" to="225806029#6" />
    <trip id="244" depart="244.00" from="254396716#7" to="27400637#0" />
    <trip id="245" depart="245.00" from="85644919#3" to="24335482#1" />
    <trip id="246" depart="246.00" from="-224316519" to="-8917284#0" />
    <trip id="247" depart="247.00" from="24335484#3" to="12437582#9" />
    <trip id="248" depart="248.00" from="84733284#1" to="-224941796#0" />
    <trip id="249" depart="249.00" from="85562549#0" to="-47108845" />
    <trip id="250" depart="250.00" from="-27054290#5" to="8920521#1" />
    <trip id="251" depart="251.00" from="-224384030#0" to="-112408726#2" />
    <trip id="252" depart="252.00" from="-12247497#4" to="8920521#0" />
    <trip id="253" depart="253.00" from="-27054290#1" to="133781730#2" />
    <trip id="254" depart="254.00" from="85562549#0" to="-85562509#0" />
    <trip id="255" depart="255.00" from="8919105" to="-8919173#6" />
    <trip id="256" depart="256.00" from="224316516#0" to="8922564#4" />
    <trip id="257" depart="257.00" from="-24335484#9" to="8919093#1" />
    <trip id="258" depart="258.00" from="254756525#9" to="-25448814#1" />
    <trip id="259" depart="259.00" from="254759915#1" to="-85644941#4" />
    <trip id="260" depart="260.00" from="-224200966#0" to="-212214151" />
    <trip id="261" depart="261.00" from="27054290#2" to="84733302#5" />
    <trip id="262" depart="262.00" from="-148481435#0" to="100400947#7" />
    <trip id="263" depart="263.00" from="-109108628" to="47108401#3" />
    <trip id="264" depart="264.00" from="-206302935" to="254396707#10" />
    <trip id="265" depart="265.00" from="27398066#0" to="8920521#1" />
    <trip id="266" depart="266.00" from="-142961038#3" to="27054290#6" />
    <trip id="267" depart="267.00" from="-224384029" to="47109077#1" />
    <trip id="268" depart="268.00" from="-12437582#6" to="-84733302#1" />
    <trip id="269" depart="269.00" from="-85644919#5" to="-224941796#1" />
    <trip id="270" depart="270.00" from="8917284#2" to="84733281#0" />
    <trip id="271" depart="271.00" from="254756525#5" to="224200969#2" />
    <trip id="272" depart="272.00" from="-224384017#2" to="-224941796#1" />
    <trip id="273" depart="273.00" from="225806029#8" to="-8917893#3" />
    <trip id="274" depart="274.00" from="148902178#6" to="225806029#6" />
    <trip id="275" depart="275.00" from="-8917284#8" to="224941796#1" />
    <trip id="276" depart="276.00" from="-254759909#0" to="-8920519#5" />
    <trip id="277" depart="277.00" from="85562549#0" to="23873979#2" />
    <trip id="278" depart="278.00" from="-148902183#1" to="29481846#4" />
    <trip id="279" depart="279.00" from="100400947#4" to="8919288#2" />
    <trip id="280" depart="280.00" from="47108845" to="-30832342#0" />
    <trip id="281" depart="281.00" from="100400947#2" to="254453308#0" />
    <trip id="282" depart="282.00" from="-148902178#1" to="-27471846" />
    <trip id="283" depart="283.00" from="224199020#0" to="-8919173#2" />
    <trip id="284" depart="284.00" from="254396707#5" to="84733303" />
    <trip id="285" depart="285.00" from="-24335480#10" to="-8919173#5" />
    <trip id="286" depart="286.00" from="-148902178#2" to="-32965267#3" />
    <trip id="287" depart="287.00" from="-85644941#3" to="27398071#3" />
    <trip id="288" depart="288.00" from="32121420" to="-85644941#1" />
    <trip id="289" depart="289.00" from="100400947#9" to="8920521#3" />
    <trip id="290" depart="290.00" from="-225516700#1" to="225806029#4" />
    <trip id="291" depart="291.00" from="85644919#5" to="-25448772#0" />
    <trip id="292" depart="292.00" from="254759909#4" to="225516722" />
    <trip id="293" depart="293.00" from="24603666#0" to="-85644919#1" />
    <trip id="294" depart="294.00" from="107288565#0" to="-8920519#3" />
    <trip id="295" depart="295.00" from="-12437582#9" to="-148902178#1" />
    <trip id="296" depart="296.00" from="85644941#3" to="-30831679" />
    <trip id="297" depart="297.00" from="-30832455" to="-8919173#8" />
    <trip id="298" depart="298.00" from="8922564#1" to="24335480#10" />
    <trip id="299" depart="299.00" from="84733298" to="84733291" />
    <trip id="300" depart="300.00" from="100400947#14" to="30035688#0" />
    <trip id="301" depart="301.00" from="8922564#2" to="8919288#2" />
    <trip id="302" depart="302.00" from="-24335484#1" to="84733294#5" />
    <trip id="303" depart="303.00" from="32965287#2" to="-148902178#6" />
    <trip id="304" depart="304.00" from="148902178#0" to="-107288565#0" />
    <trip id="305" depart="305.00" from="-8919105" to="12247497#4" />
    <trip id="306" depart="306.00" from="224199020#2" to="25448776#0" />
    <trip id="307" depart="307.00" from="206302935" to="-8919163#7" />
    <trip id="308" depart="308.00" from="84733294#5" to="-8920519#6" />
    <trip id="309" depart="309.00" from="-254759908" to="-133781730#0" />
    <trip id="310" depart="310.00" from="254759913" to="8919343#0" />
    <trip id="311" depart="311.00" from="-85644919#6" to="-25448919#0" />
    <trip id="312" depart="312.00" from="-8920519#6" to="8917284#2" />
    <trip id="313" depart="313.00" from="148902178#4" to="84733302#11" />
    <trip id="314" depart="314.00" from="12437582#6" to="27398066#4" />
    <trip id="315" depart="315.00" from="224316519" to="24603666#0" />
    <trip id="316" depart="316.00" from="8919246#2" to="-85644919#6" />
    <trip id="317" depart="317.00" from="-84733302#10" to="24335480#1" />
    <trip id="318" depart="318.00" from="8917893#0" to="84733302#0" />
    <trip id="319" depart="319.00" from="-27054290#5" to="224384017#1" />
    <trip id="320" depart="320.00" from="8920521#2" to="254759909#6" />
    <trip id="321" depart="321.00" from="-8920519#4" to="225516711#2" />
    <trip id="322" depart="322.00" from="-224200965#5" to="-27398066#2" />
    <trip id="323" depart="323.00" from="254396712" to="-8919163#7" />
    <trip id="324" depart="324.00" from="254396707#3" to="8917284#8" />
    <trip id="325" depart="325.00" from="23874038" to="-12437582#8" />
    <trip id="326" depart="326.00" from="85644941#4" to="-32121420" />
    <trip id="327" depart="327.00" from="-8922564#3" to="-32121420" />
    <trip id="328" depart="328.00" from="-85644941#5" to="25448780#2" />
    <trip id="329" depart="329.00" from="-12437582#1" to="-254759909#4" />
    <trip id="330" depart="330.00" from="12247498#2" to="262933356#1" />
    <trip id="331" depart="331.00" from="224199010#2" to="-8919173#2" />
    <trip id="332" depart="332.00" from="-12437582#2" to="-24335484#7" />
    <trip id="333" depart="333.00" from="254756525#5" to="12247497#5" />
    <trip id="334" depart="334.00" from="32121420" to="24335484#1" />
    <trip id="335" depart="335.00" from="254758120#5" to="85644919#2" />
    <trip id="336" depart="336.00" from="-8919173#10" to="224199020#0" />
    <trip id="337" depart="337.00" from="254756525#1" to="-85644941#1" />
    <trip id="338" depart="338.00" from="-12247498#2" to="12437584#1" />
    <trip id="339" depart="339.00" from="-27054290#1" to="-225516700#1" />
    <trip id="340" depart="340.00" from="262933359#0" to="142961038#3" />
    <trip id="341" depart="341.00" from="-8920521#3" to="12247498#0" />
    <trip id="342" depart="342.00" from="8921114" to="-8920521#1" />
    <trip id="343" depart="343.00" from="8917056" to="-148902178#1" />
    <trip id="344" depart="344.00" from="-8915071#0" to="84654229" />
    <trip id="345" depart="345.00" from="-85644919#3" to="-85644919#2" />
    <trip id="346" depart="346.00" from="214060548" to="100400947#7" />
    <trip id="347" depart="347.00" from="27398066#3" to="-224200972#0" />
    <trip id="348" depart="348.00" from="254756525#1" to="-224384017#0" />
    <trip id="349" depart="349.00" from="-224384029" to="-85644919#5" />
    <trip id="350" depart="350.00" from="12247497#1" to="8919163#2" />
    <trip id="351" depart="351.00" from="-8919163#7" to="8919163#5" />
    <trip id="352" depart="352.00" from="-8919163#7" to="-225516711#0" />
    <trip id="353" depart="353.00" from="8917523#1" to="84733260#0" />
    <trip id="354" depart="354.00" from="224199017#6" to="12437582#9" />
    <trip id="355" depart="355.00" from="-8919163#6" to="224200965#9" />
    <trip id="356" depart="356.00" from="-8919173#10" to="8922564#4" />
    <trip id="357" depart="357.00" from="8920519#3" to="25448772#0" />
    <trip id="358" depart="358.00" from="262933359#0" to="8919163#9" />
    <trip id="359" depart="359.00" from="-32965204#0" to="225516722" />
    <trip id="360" depart="360.00" from="254396707#3" to="-12437582#8" />
    <trip id="361" depart="361.00" from="-224199010#0" to="-148902183#1" />
    <trip id="362" depart="362.00" from="-85644919#8" to="32965204#0" />
    <trip id="363" depart="363.00" from="262933356#1" to="-8922564#1" />
    <trip id="364" depart="364.00" from="-24335484#0" to="-24335484#5" />
    <trip id="365" depart="365.00" from="254396707#11" to="27054293" />
    <trip id="366" depart="366.00" from="-24335484#0" to="254758120#1" />
    <trip id="367" depart="367.00" from="-27054290#0" to="254396707#7" />
    <trip id="368" depart="368.00" from="25448907#1" to="133781730#2" />
    <trip id="369" depart="369.00" from="8915750#0" to="-12247497#1" />
    <trip id="370" depart="370.00" from="-254759909#4" to="254396707#3" />
    <trip id="371" depart="371.00" from="24335480#9" to="84733291" />
    <trip id="372" depart="372.00" from="91181763#0" to="8915750#0" />
    <trip id="373" depart="373.00" from="-212214149" to="-224384017#1" />
    <trip id="374" depart="374.00" from="84733260#1" to="254759909#3" />
    <trip id="375" depart="375.00" from="-12437582#8" to="225806029#17" />
    <trip id="376" depart="376.00" from="225806029#17" to="-84733265" />
    <trip id="377" depart="377.00" from="-24335480#8" to="-112408726#0" />
    <trip id="378" depart="378.00" from="-30832455" to="-84733302#12" />
    <trip id="379" depart="379.00" from="28825641#2" to="254759915#1" />
    <trip id="380" depart="380.00" from="85562509#1" to="85562549#1" />
    <trip id="381" depart="381.00" from="100400947#4" to="27398066#5" />
    <trip id="382" depart="382.00" from="-148902178#1" to="-8917284#7" />
    <trip id="383" depart="383.00" from="-8915506#0" to="8919288#0" />
    <trip id="384" depart="384.00" from="254396707#3" to="-85644919#5" />
    <trip id="385" depart="385.00" from="-25448772#0" to="254453308#0" />
    <trip id="386" depart="386.00" from="100400947#5" to="27054290#4" />
    <trip id="387" depart="387.00" from="112408726#0" to="24335484#9" />
    <trip id="388" depart="388.00" from="-84733291" to="254756525#4" />
    <trip id="389" depart="389.00" from="-24335484#0" to="8920521#3" />
    <trip id="390" depart="390.00" from="24335480#3" to="-25448816" />
    <trip id="391" depart="391.00" from="23887507" to="84733312" />
    <trip id="392" depart="392.00" from="-224199010#2" to="142961031" />
    <trip id="393" depart="393.00" from="47108845" to="-85644919#5" />
    <trip id="394" depart="394.00" from="-224200969#0" to="-84733302#7" />
    <trip id="395" depart="395.00" from="-85562549#1" to="24335482#1" />
    <trip id="396" depart="396.00" from="-24335480#9" to="84733316" />
    <trip id="397" depart="397.00" from="-224316516#1" to="-27398066#2" />
    <trip id="398" depart="398.00" from="-85644941#3" to="254396707#4" />
    <trip id="399" depart="399.00" from="-27054290#1" to="-148902178#1" />
    <trip id="400" depart="400.00" from="-84733291" to="-32121420" />
    <trip id="401" depart="401.00" from="265059753#0" to="36948490" />
    <trip id="402" depart="402.00" from="8917284#8" to="-24335484#2" />
    <trip id="403" depart="403.00" from="219058166" to="85644919#4" />
    <trip id="404" depart="404.00" from="-8920519#5" to="-85644919#4" />
    <trip id="405" depart="405.00" from="85644919#0" to="225806029#9" />
    <trip id="406" depart="406.00" from="-84733302#9" to="-254759909#5" />
    <trip id="407" depart="407.00" from="86331216" to="-84733302#5" />
    <trip id="408" depart="408.00" from="142961038#4" to="25448746#4" />
    <trip id="409" depart="409.00" from="8919163#7" to="8920519#2" />
    <trip id="410" depart="410.00" from="-85644919#5" to="8921114" />
    <trip id="411" depart="411.00" from="225516711#2" to="84733284#0" />
    <trip id="412" depart="412.00" from="-8919163#9" to="254759914" />