<?xml version="1.0" encoding="UTF-8"?>

<!-- generated on Mon Jun  9 00:08:54 2014 by SUMO netconvert Version dev-SVN-r15797
<?xml version="1.0" encoding="UTF-8"?>

<configuration xmlns:xsi="http://www.w3.org/2001/XMLSchema-instance" xsi:noNamespaceSchemaLocation="http://sumo-sim.org/xsd/netconvertConfiguration.xsd">

    <input>
        <type-files value="typemap.xml"/>
        <osm-files value="SanFrancisco6.osm"/>
    </input>

    <output>
        <output-file value="SanFrancisco6.net.xml"/>
    </output>

    <projection>
        <proj.utm value="true"/>
    </projection>

    <tls_building>
        <tls.join value="true"/>
        <tls.green.time value="45"/>
    </tls_building>

    <ramp_guessing>
        <ramps.guess value="true"/>
    </ramp_guessing>

    <edge_removal>
        <remove-edges.by-vclass value="hov,taxi,bus,delivery,transport,lightrail,cityrail,rail_slow,rail_fast,motorcycle,bicycle,pedestrian"/>
        <remove-edges.isolated value="true"/>
    </edge_removal>

    <processing>
        <geometry.remove value="true"/>
    </processing>

    <report>
        <verbose value="true"/>
    </report>

    <random_number>
        <random value="true"/>
    </random_number>

</configuration>
-->

<net version="0.13" xmlns:xsi="http://www.w3.org/2001/XMLSchema-instance" xsi:noNamespaceSchemaLocation="http://sumo-sim.org/xsd/net_file.xsd">

    <location netOffset="-548740.73,-4182890.68" convBoundary="0.00,0.00,4497.68,2119.10" origBoundary="-122.446391,37.790833,-122.390881,37.868801" projParameter="+proj=utm +zone=10 +ellps=WGS84 +datum=WGS84 +units=m +no_defs"/>

    <edge id=":1026928270_0" function="internal">
        <lane id=":1026928270_0_0" index="0" speed="13.89" length="4.82" shape="2161.77,1360.54 2162.80,1359.46 2163.68,1359.19 2164.42,1359.74 2165.03,1361.10"/>
    </edge>
    <edge id=":1026928301_0" function="internal">
        <lane id=":1026928301_0_0" index="0" speed="9.72" length="2.86" shape="2174.95,1341.16 2172.48,1339.72"/>
    </edge>
    <edge id=":1026928301_1" function="internal">
        <lane id=":1026928301_1_0" index="0" speed="5.56" length="2.41" shape="2174.95,1341.16 2173.93,1340.08 2173.72,1339.18"/>
    </edge>
    <edge id=":1026928301_4" function="internal">
        <lane id=":1026928301_4_0" index="0" speed="5.56" length="2.41" shape="2173.72,1339.18 2174.31,1338.47 2175.71,1337.95"/>
    </edge>
    <edge id=":1026928301_2" function="internal">
        <lane id=":1026928301_2_0" index="0" speed="9.72" length="0.93" shape="2174.90,1337.48 2175.71,1337.95"/>
    </edge>
    <edge id=":1026928301_3" function="internal">
        <lane id=":1026928301_3_0" index="0" speed="13.89" length="2.41" shape="2174.90,1337.48 2175.13,1338.95 2174.81,1339.81"/>
    </edge>
    <edge id=":1026928301_5" function="internal">
        <lane id=":1026928301_5_0" index="0" speed="13.89" length="2.41" shape="2174.81,1339.81 2173.92,1340.07 2172.48,1339.72"/>
    </edge>
    <edge id=":1580517057_0" function="internal">
        <lane id=":1580517057_0_0" index="0" speed="13.89" length="5.00" shape="2246.76,884.67 2245.39,884.64 2244.34,885.05 2243.60,885.91 2243.19,887.21"/>
    </edge>
    <edge id=":1580517057_1" function="internal">
        <lane id=":1580517057_1_0" index="0" speed="13.89" length="9.51" shape="2246.76,884.67 2237.38,883.09"/>
    </edge>
    <edge id=":1580517057_2" function="internal">
        <lane id=":1580517057_2_0" index="0" speed="13.89" length="10.33" shape="2246.76,884.67 2244.06,883.81 2242.29,882.29 2241.44,880.12 2241.51,877.29"/>
    </edge>
    <edge id=":1580517057_3" function="internal">
        <lane id=":1580517057_3_0" index="0" speed="13.89" length="4.82" shape="2246.76,884.67 2245.68,883.65 2245.41,882.77 2245.95,882.03 2247.31,881.42"/>
    </edge>
    <edge id=":1580517057_4" function="internal">
        <lane id=":1580517057_4_0" index="0" speed="13.89" length="5.01" shape="2244.76,877.84 2244.73,879.21 2245.14,880.27 2246.00,881.00 2247.31,881.42"/>
    </edge>
    <edge id=":1580517057_5" function="internal">
        <lane id=":1580517057_5_0" index="0" speed="13.89" length="9.51" shape="2244.76,877.84 2243.19,887.21"/>
    </edge>
    <edge id=":1580517057_6" function="internal">
        <lane id=":1580517057_6_0" index="0" speed="13.89" length="7.14" shape="2244.76,877.84 2243.90,880.54 2242.39,882.31 2240.54,883.03"/>
    </edge>
    <edge id=":1580517057_7" function="internal">
        <lane id=":1580517057_7_0" index="0" speed="13.89" length="2.41" shape="2244.76,877.84 2243.74,878.92 2242.86,879.19"/>
    </edge>
    <edge id=":1580517057_16" function="internal">
        <lane id=":1580517057_16_0" index="0" speed="13.89" length="3.19" shape="2240.54,883.03 2240.21,883.16 2237.38,883.09"/>
    </edge>
    <edge id=":1580517057_17" function="internal">
        <lane id=":1580517057_17_0" index="0" speed="13.89" length="2.41" shape="2242.86,879.19 2242.12,878.65 2241.51,877.29"/>
    </edge>
    <edge id=":1580517057_8" function="internal">
        <lane id=":1580517057_8_0" index="0" speed="13.89" length="5.00" shape="2237.94,879.83 2239.31,879.87 2240.36,879.46 2241.09,878.60 2241.51,877.29"/>
    </edge>
    <edge id=":1580517057_9" function="internal">
        <lane id=":1580517057_9_0" index="0" speed="13.89" length="9.51" shape="2237.94,879.83 2247.31,881.42"/>
    </edge>
    <edge id=":1580517057_10" function="internal">
        <lane id=":1580517057_10_0" index="0" speed="13.89" length="10.33" shape="2237.94,879.83 2240.63,880.70 2242.41,882.21 2243.26,884.39 2243.19,887.21"/>
    </edge>
    <edge id=":1580517057_11" function="internal">
        <lane id=":1580517057_11_0" index="0" speed="13.89" length="4.82" shape="2237.94,879.83 2239.02,880.85 2239.29,881.73 2238.74,882.48 2237.38,883.09"/>
    </edge>
    <edge id=":1580517057_12" function="internal">
        <lane id=":1580517057_12_0" index="0" speed="13.89" length="5.01" shape="2239.93,886.67 2239.97,885.30 2239.55,884.24 2238.69,883.50 2237.38,883.09"/>
    </edge>
    <edge id=":1580517057_13" function="internal">
        <lane id=":1580517057_13_0" index="0" speed="13.89" length="9.51" shape="2239.93,886.67 2241.51,877.29"/>
    </edge>
    <edge id=":1580517057_14" function="internal">
        <lane id=":1580517057_14_0" index="0" speed="13.89" length="7.14" shape="2239.93,886.67 2240.79,883.97 2242.31,882.20 2244.15,881.48"/>
    </edge>
    <edge id=":1580517057_15" function="internal">
        <lane id=":1580517057_15_0" index="0" speed="13.89" length="2.41" shape="2239.93,886.67 2240.95,885.58 2241.83,885.31"/>
    </edge>
    <edge id=":1580517057_18" function="internal">
        <lane id=":1580517057_18_0" index="0" speed="13.89" length="3.18" shape="2244.15,881.48 2244.48,881.35 2247.31,881.42"/>
    </edge>
    <edge id=":1580517057_19" function="internal">
        <lane id=":1580517057_19_0" index="0" speed="13.89" length="2.41" shape="2241.83,885.31 2242.58,885.86 2243.19,887.21"/>
    </edge>
    <edge id=":1593395185_0" function="internal">
        <lane id=":1593395185_0_0" index="0" speed="13.89" length="4.82" shape="3696.90,952.99 3697.90,951.89 3698.78,951.61 3699.54,952.14 3700.17,953.49"/>
    </edge>
    <edge id=":1594227876_0" function="internal">
        <lane id=":1594227876_0_0" index="0" speed="13.89" length="4.82" shape="2178.62,1248.52 2177.62,1249.61 2176.74,1249.89 2175.99,1249.36 2175.36,1248.01"/>
    </edge>
    <edge id=":1594252941_0" function="internal">
        <lane id=":1594252941_0_0" index="0" speed="13.89" length="4.82" shape="3485.80,1360.88 3486.82,1359.80 3487.71,1359.54 3488.45,1360.08 3489.05,1361.44"/>
    </edge>
    <edge id=":1594252943_0" function="internal">
        <lane id=":1594252943_0_0" index="0" speed="13.89" length="4.82" shape="3491.74,1348.27 3490.71,1349.34 3489.82,1349.60 3489.08,1349.05 3488.49,1347.68"/>
    </edge>
    <edge id=":1684258113_0" function="internal">
        <lane id=":1684258113_0_0" index="0" speed="13.89" length="4.82" shape="-0.27,297.77 -1.36,296.75 -1.63,295.87 -1.09,295.12 0.27,294.51"/>
    </edge>
    <edge id=":2071244791_0" function="internal">
        <lane id=":2071244791_0_0" index="0" speed="18.06" length="6.79" shape="2978.46,1847.92 2977.29,1848.42 2976.30,1849.48 2975.50,1851.10 2974.89,1853.28"/>
    </edge>
    <edge id=":2071244791_1" function="internal">
        <lane id=":2071244791_1_0" index="0" speed="22.22" length="9.87" shape="2978.46,1847.92 2968.71,1849.41"/>
    </edge>
    <edge id=":2071244791_2" function="internal">
        <lane id=":2071244791_2_0" index="0" speed="13.89" length="8.26" shape="2974.67,1845.02 2974.89,1853.28"/>
    </edge>
    <edge id=":2071244791_3" function="internal">
        <lane id=":2071244791_3_0" index="0" speed="18.06" length="7.99" shape="2974.67,1845.02 2974.11,1846.67 2972.93,1847.95 2971.13,1848.87 2968.71,1849.41"/>
    </edge>
    <edge id=":2071244791_4" function="internal">
        <lane id=":2071244791_4_0" index="0" speed="18.06" length="5.47" shape="2971.66,1852.60 2971.77,1851.02 2971.31,1849.96 2970.29,1849.43 2968.71,1849.41"/>
    </edge>
    <edge id=":2071244791_5" function="internal">
        <lane id=":2071244791_5_0" index="0" speed="13.89" length="2.41" shape="2971.66,1852.60 2972.72,1851.56 2973.62,1851.32"/>
    </edge>
    <edge id=":2071244791_6" function="internal">
        <lane id=":2071244791_6_0" index="0" speed="13.89" length="2.41" shape="2973.62,1851.32 2974.34,1851.90 2974.89,1853.28"/>
    </edge>
    <edge id=":2081705811_0" function="internal">
        <lane id=":2081705811_0_0" index="0" speed="18.06" length="5.00" shape="2270.31,1633.22 2268.94,1633.19 2267.89,1633.60 2267.16,1634.46 2266.75,1635.77"/>
    </edge>
    <edge id=":2081705811_1" function="internal">
        <lane id=":2081705811_1_0" index="0" speed="13.89" length="9.55" shape="2270.31,1633.22 2260.90,1631.62"/>
    </edge>
    <edge id=":2081705811_2" function="internal">
        <lane id=":2081705811_2_0" index="0" speed="18.06" length="3.18" shape="2270.31,1633.22 2267.61,1632.36 2267.35,1632.13"/>
    </edge>
    <edge id=":2081705811_3" function="internal">
        <lane id=":2081705811_3_0" index="0" speed="13.89" length="2.41" shape="2270.31,1633.22 2269.23,1632.20 2268.96,1631.32"/>
    </edge>
    <edge id=":2081705811_16" function="internal">
        <lane id=":2081705811_16_0" index="0" speed="18.06" length="7.17" shape="2267.35,1632.13 2265.83,1630.84 2264.98,1628.67 2265.04,1625.83"/>
    </edge>
    <edge id=":2081705811_17" function="internal">
        <lane id=":2081705811_17_0" index="0" speed="13.89" length="2.41" shape="2268.96,1631.32 2269.50,1630.57 2270.86,1629.96"/>
    </edge>
    <edge id=":2081705811_4" function="internal">
        <lane id=":2081705811_4_0" index="0" speed="18.06" length="5.04" shape="2268.29,1626.36 2268.26,1627.75 2268.68,1628.81 2269.55,1629.55 2270.86,1629.96"/>
    </edge>
    <edge id=":2081705811_5" function="internal">
        <lane id=":2081705811_5_0" index="0" speed="22.22" length="9.53" shape="2268.29,1626.36 2266.75,1635.77"/>
    </edge>
    <edge id=":2081705811_6" function="internal">
        <lane id=":2081705811_6_0" index="0" speed="18.06" length="3.20" shape="2268.29,1626.36 2267.44,1629.07 2267.21,1629.34"/>
    </edge>
    <edge id=":2081705811_7" function="internal">
        <lane id=":2081705811_7_0" index="0" speed="22.22" length="2.41" shape="2268.29,1626.36 2267.28,1627.45 2266.40,1627.72"/>
    </edge>
    <edge id=":2081705811_18" function="internal">
        <lane id=":2081705811_18_0" index="0" speed="18.06" length="7.16" shape="2267.21,1629.34 2265.92,1630.85 2263.74,1631.70 2260.90,1631.62"/>
    </edge>
    <edge id=":2081705811_19" function="internal">
        <lane id=":2081705811_19_0" index="0" speed="22.22" length="2.41" shape="2266.40,1627.72 2265.65,1627.18 2265.04,1625.83"/>
    </edge>
    <edge id=":2081705811_8" function="internal">
        <lane id=":2081705811_8_0" index="0" speed="18.06" length="5.01" shape="2261.46,1628.37 2262.84,1628.41 2263.89,1628.00 2264.62,1627.14 2265.04,1625.83"/>
    </edge>
    <edge id=":2081705811_9" function="internal">
        <lane id=":2081705811_9_0" index="0" speed="13.89" length="9.53" shape="2261.46,1628.37 2270.86,1629.96"/>
    </edge>
    <edge id=":2081705811_10" function="internal">
        <lane id=":2081705811_10_0" index="0" speed="18.06" length="3.20" shape="2261.46,1628.37 2264.16,1629.24 2264.44,1629.48"/>
    </edge>
    <edge id=":2081705811_11" function="internal">
        <lane id=":2081705811_11_0" index="0" speed="13.89" length="2.41" shape="2261.46,1628.37 2262.54,1629.39 2262.81,1630.28"/>
    </edge>
    <edge id=":2081705811_20" function="internal">
        <lane id=":2081705811_20_0" index="0" speed="18.06" length="7.15" shape="2264.44,1629.48 2265.94,1630.77 2266.81,1632.94 2266.75,1635.77"/>
    </edge>
    <edge id=":2081705811_21" function="internal">
        <lane id=":2081705811_21_0" index="0" speed="13.89" length="2.41" shape="2262.81,1630.28 2262.26,1631.02 2260.90,1631.62"/>
    </edge>
    <edge id=":2081705811_12" function="internal">
        <lane id=":2081705811_12_0" index="0" speed="18.06" length="5.07" shape="2263.49,1635.24 2263.52,1633.86 2263.10,1632.79 2262.23,1632.05 2260.90,1631.62"/>
    </edge>
    <edge id=":2081705811_13" function="internal">
        <lane id=":2081705811_13_0" index="0" speed="22.22" length="9.54" shape="2263.49,1635.24 2265.04,1625.83"/>
    </edge>
    <edge id=":2081705811_14" function="internal">
        <lane id=":2081705811_14_0" index="0" speed="18.06" length="3.21" shape="2263.49,1635.24 2264.34,1632.54 2264.59,1632.25"/>
    </edge>
    <edge id=":2081705811_15" function="internal">
        <lane id=":2081705811_15_0" index="0" speed="22.22" length="2.41" shape="2263.49,1635.24 2264.51,1634.15 2265.39,1633.88"/>
    </edge>
    <edge id=":2081705811_22" function="internal">
        <lane id=":2081705811_22_0" index="0" speed="18.06" length="7.12" shape="2264.59,1632.25 2265.85,1630.75 2268.02,1629.90 2270.86,1629.96"/>
    </edge>
    <edge id=":2081705811_23" function="internal">
        <lane id=":2081705811_23_0" index="0" speed="22.22" length="2.41" shape="2265.39,1633.88 2266.14,1634.42 2266.75,1635.77"/>
    </edge>
    <edge id=":2259683600_0" function="internal">
        <lane id=":2259683600_0_0" index="0" speed="13.89" length="4.82" shape="2808.09,553.58 2807.03,552.54 2806.77,551.66 2807.32,550.92 2808.69,550.33"/>
    </edge>
    <edge id=":2259683601_0" function="internal">
        <lane id=":2259683601_0_0" index="0" speed="13.89" length="4.82" shape="2803.49,548.89 2804.57,549.91 2804.84,550.79 2804.30,551.54 2802.94,552.15"/>
    </edge>
    <edge id=":2461023608_0" function="internal">
        <lane id=":2461023608_0_0" index="0" speed="13.89" length="5.09" shape="1641.55,51.22 1640.21,51.21 1639.15,51.64 1638.37,52.52 1637.85,53.85"/>
    </edge>
    <edge id=":2461023608_1" function="internal">
        <lane id=":2461023608_1_0" index="0" speed="13.89" length="6.18" shape="1641.55,51.22 1635.46,50.17"/>
    </edge>
    <edge id=":2461023608_2" function="internal">
        <lane id=":2461023608_2_0" index="0" speed="13.89" length="2.41" shape="1641.55,51.22 1640.46,50.21 1640.18,49.33"/>
    </edge>
    <edge id=":2461023608_6" function="internal">
        <lane id=":2461023608_6_0" index="0" speed="13.89" length="2.41" shape="1640.18,49.33 1640.72,48.58 1642.07,47.96"/>
    </edge>
    <edge id=":2461023608_3" function="internal">
        <lane id=":2461023608_3_0" index="0" speed="13.89" length="6.11" shape="1636.05,46.93 1642.07,47.96"/>
    </edge>
    <edge id=":2461023608_4" function="internal">
        <lane id=":2461023608_4_0" index="0" speed="13.89" length="4.79" shape="1636.05,46.93 1637.41,47.59 1638.17,48.96 1638.29,50.66"/>
    </edge>
    <edge id=":2461023608_5" function="internal">
        <lane id=":2461023608_5_0" index="0" speed="13.89" length="2.41" shape="1636.05,46.93 1637.12,47.96 1637.38,48.84"/>
    </edge>
    <edge id=":2461023608_7" function="internal">
        <lane id=":2461023608_7_0" index="0" speed="13.89" length="3.23" shape="1638.29,50.66 1638.32,51.05 1637.85,53.85"/>
    </edge>
    <edge id=":2461023608_8" function="internal">
        <lane id=":2461023608_8_0" index="0" speed="13.89" length="2.41" shape="1637.38,48.84 1636.83,49.58 1635.46,50.17"/>
    </edge>
    <edge id=":258758534_0" function="internal">
        <lane id=":258758534_0_0" index="0" speed="12.53" length="5.07" shape="1948.79,940.45 1947.42,940.42 1946.36,940.85 1945.61,941.73 1945.19,943.06"/>
    </edge>
    <edge id=":258758534_1" function="internal">
        <lane id=":258758534_1_0" index="0" speed="13.89" length="12.83" shape="1948.79,940.45 1945.43,939.89 1942.46,939.41 1939.50,938.93 1936.13,938.39"/>
    </edge>
    <edge id=":258758534_2" function="internal">
        <lane id=":258758534_2_0" index="0" speed="13.89" length="2.41" shape="1948.79,940.45 1947.71,939.43 1947.43,938.55"/>
    </edge>
    <edge id=":258758534_10" function="internal">
        <lane id=":258758534_10_0" index="0" speed="13.89" length="2.41" shape="1947.43,938.55 1947.98,937.80 1949.33,937.19"/>
    </edge>
    <edge id=":258758534_3" function="internal">
        <lane id=":258758534_3_0" index="0" speed="12.53" length="5.00" shape="1946.78,933.63 1946.75,935.00 1947.16,936.05 1948.02,936.78 1949.33,937.19"/>
    </edge>
    <edge id=":258758534_4" function="internal">
        <lane id=":258758534_4_0" index="0" speed="11.18" length="9.56" shape="1946.78,933.63 1945.19,943.06"/>
        <lane id=":258758534_4_1" index="1" speed="11.18" length="9.56" shape="1943.52,933.08 1941.94,942.51"/>
        <lane id=":258758534_4_2" index="2" speed="11.18" length="9.56" shape="1940.27,932.54 1938.68,941.96"/>
    </edge>
    <edge id=":258758534_7" function="internal">
        <lane id=":258758534_7_0" index="0" speed="13.89" length="12.85" shape="1936.65,935.13 1940.02,935.67 1942.99,936.15 1945.96,936.64 1949.33,937.19"/>
    </edge>
    <edge id=":258758534_8" function="internal">
        <lane id=":258758534_8_0" index="0" speed="12.53" length="4.74" shape="1936.65,935.13 1937.94,935.75 1938.71,937.09 1938.92,938.84"/>
    </edge>
    <edge id=":258758534_9" function="internal">
        <lane id=":258758534_9_0" index="0" speed="13.89" length="2.41" shape="1936.65,935.13 1937.74,936.14 1938.02,937.02"/>
    </edge>
    <edge id=":258758534_11" function="internal">
        <lane id=":258758534_11_0" index="0" speed="12.53" length="3.13" shape="1938.92,938.84 1938.96,939.16 1938.68,941.96"/>
    </edge>
    <edge id=":258758534_12" function="internal">
        <lane id=":258758534_12_0" index="0" speed="13.89" length="2.41" shape="1938.02,937.02 1937.48,937.77 1936.13,938.39"/>
    </edge>
    <edge id=":258758535_0" function="internal">
        <lane id=":258758535_0_0" index="0" speed="12.53" length="5.00" shape="1966.01,837.03 1964.64,836.99 1963.59,837.41 1962.85,838.27 1962.44,839.57"/>
    </edge>
    <edge id=":258758535_1" function="internal">
        <lane id=":258758535_1_0" index="0" speed="13.89" length="12.82" shape="1966.01,837.03 1962.65,836.46 1959.69,835.96 1956.73,835.45 1953.37,834.88"/>
    </edge>
    <edge id=":258758535_2" function="internal">
        <lane id=":258758535_2_0" index="0" speed="13.89" length="2.41" shape="1966.01,837.03 1964.93,836.01 1964.66,835.13"/>
    </edge>
    <edge id=":258758535_10" function="internal">
        <lane id=":258758535_10_0" index="0" speed="13.89" length="2.41" shape="1964.66,835.13 1965.20,834.38 1966.56,833.78"/>
    </edge>
    <edge id=":258758535_3" function="internal">
        <lane id=":258758535_3_0" index="0" speed="12.53" length="5.03" shape="1964.01,830.17 1963.97,831.55 1964.39,832.61 1965.25,833.35 1966.56,833.78"/>
    </edge>
    <edge id=":258758535_4" function="internal">
        <lane id=":258758535_4_0" index="0" speed="11.18" length="9.53" shape="1964.01,830.17 1962.44,839.57"/>
        <lane id=":258758535_4_1" index="1" speed="11.18" length="9.53" shape="1960.75,829.63 1959.18,839.03"/>
        <lane id=":258758535_4_2" index="2" speed="11.18" length="9.53" shape="1957.50,829.08 1955.93,838.49"/>
    </edge>
    <edge id=":258758535_7" function="internal">
        <lane id=":258758535_7_0" index="0" speed="13.89" length="12.82" shape="1953.92,831.62 1957.28,832.20 1960.24,832.70 1963.20,833.20 1966.56,833.78"/>
    </edge>
    <edge id=":258758535_8" function="internal">
        <lane id=":258758535_8_0" index="0" speed="12.53" length="4.73" shape="1953.92,831.62 1955.20,832.25 1955.95,833.60 1956.16,835.35"/>
    </edge>
    <edge id=":258758535_9" function="internal">
        <lane id=":258758535_9_0" index="0" speed="13.89" length="2.41" shape="1953.92,831.62 1955.00,832.64 1955.27,833.53"/>
    </edge>
    <edge id=":258758535_11" function="internal">
        <lane id=":258758535_11_0" index="0" speed="12.53" length="3.15" shape="1956.16,835.35 1956.20,835.68 1955.93,838.49"/>
    </edge>
    <edge id=":258758535_12" function="internal">
        <lane id=":258758535_12_0" index="0" speed="13.89" length="2.41" shape="1955.27,833.53 1954.73,834.27 1953.37,834.88"/>
    </edge>
    <edge id=":258758536_0" function="internal">
        <lane id=":258758536_0_0" index="0" speed="16.70" length="5.01" shape="1983.33,733.73 1981.95,733.69 1980.90,734.09 1980.16,734.95 1979.75,736.26"/>
    </edge>
    <edge id=":258758536_1" function="internal">
        <lane id=":258758536_1_0" index="0" speed="22.22" length="12.87" shape="1983.33,733.73 1979.96,733.14 1976.99,732.62 1974.01,732.10 1970.65,731.51"/>
    </edge>
    <edge id=":258758536_2" function="internal">
        <lane id=":258758536_2_0" index="0" speed="22.22" length="2.41" shape="1983.33,733.73 1982.25,732.70 1981.99,731.82"/>
    </edge>
    <edge id=":258758536_11" function="internal">
        <lane id=":258758536_11_0" index="0" speed="22.22" length="2.41" shape="1981.99,731.82 1982.54,731.08 1983.90,730.48"/>
    </edge>
    <edge id=":258758536_3" function="internal">
        <lane id=":258758536_3_0" index="0" speed="16.70" length="5.16" shape="1981.30,726.75 1981.27,728.17 1981.70,729.27 1982.57,730.04 1983.90,730.48"/>
    </edge>
    <edge id=":258758536_4" function="internal">
        <lane id=":258758536_4_0" index="0" speed="11.18" length="9.61" shape="1981.30,726.75 1979.75,736.26"/>
        <lane id=":258758536_4_1" index="1" speed="11.18" length="9.61" shape="1978.04,726.23 1976.49,735.71"/>
        <lane id=":258758536_4_2" index="2" speed="11.18" length="9.61" shape="1974.79,725.71 1973.24,735.17"/>
    </edge>
    <edge id=":258758536_7" function="internal">
        <lane id=":258758536_7_0" index="0" speed="16.70" length="7.89" shape="1974.79,725.71 1974.15,728.45 1973.25,730.33 1972.08,731.35 1970.65,731.51"/>
    </edge>
    <edge id=":258758536_8" function="internal">
        <lane id=":258758536_8_0" index="0" speed="22.22" length="12.87" shape="1971.22,728.26 1974.58,728.85 1977.56,729.37 1980.53,729.89 1983.90,730.48"/>
    </edge>
    <edge id=":258758536_9" function="internal">
        <lane id=":258758536_9_0" index="0" speed="16.70" length="4.76" shape="1971.22,728.26 1972.50,728.89 1973.27,730.25 1973.47,732.00"/>
    </edge>
    <edge id=":258758536_10" function="internal">
        <lane id=":258758536_10_0" index="0" speed="22.22" length="2.41" shape="1971.22,728.26 1972.29,729.28 1972.56,730.17"/>
    </edge>
    <edge id=":258758536_12" function="internal">
        <lane id=":258758536_12_0" index="0" speed="16.70" length="3.18" shape="1973.47,732.00 1973.51,732.35 1973.24,735.17"/>
    </edge>
    <edge id=":258758536_13" function="internal">
        <lane id=":258758536_13_0" index="0" speed="22.22" length="2.41" shape="1972.56,730.17 1972.01,730.91 1970.65,731.51"/>
    </edge>
    <edge id=":258758537_0" function="internal">
        <lane id=":258758537_0_0" index="0" speed="12.53" length="5.02" shape="1999.83,630.86 1998.45,630.83 1997.39,631.25 1996.66,632.12 1996.25,633.43"/>
    </edge>
    <edge id=":258758537_1" function="internal">
        <lane id=":258758537_1_0" index="0" speed="13.89" length="12.89" shape="1999.83,630.86 1996.46,630.31 1993.47,629.80 1990.50,629.28 1987.13,628.67"/>
    </edge>
    <edge id=":258758537_2" function="internal">
        <lane id=":258758537_2_0" index="0" speed="13.89" length="2.41" shape="1999.83,630.86 1998.74,629.85 1998.47,628.97"/>
    </edge>
    <edge id=":258758537_11" function="internal">
        <lane id=":258758537_11_0" index="0" speed="13.89" length="2.41" shape="1998.47,628.97 1999.01,628.22 2000.36,627.61"/>
    </edge>
    <edge id=":258758537_3" function="internal">
        <lane id=":258758537_3_0" index="0" speed="12.53" length="5.01" shape="1997.82,624.03 1997.78,625.41 1998.19,626.46 1999.05,627.20 2000.36,627.61"/>
    </edge>
    <edge id=":258758537_4" function="internal">
        <lane id=":258758537_4_0" index="0" speed="11.18" length="9.56" shape="1997.82,624.03 1996.25,633.43"/>
        <lane id=":258758537_4_1" index="1" speed="11.18" length="9.56" shape="1994.57,623.47 1993.00,632.90"/>
        <lane id=":258758537_4_2" index="2" speed="11.18" length="9.56" shape="1991.32,622.90 1989.74,632.38"/>
    </edge>
    <edge id=":258758537_7" function="internal">
        <lane id=":258758537_7_0" index="0" speed="12.53" length="7.88" shape="1991.32,622.90 1990.65,625.64 1989.72,627.51 1988.55,628.52 1987.13,628.67"/>
    </edge>
    <edge id=":258758537_8" function="internal">
        <lane id=":258758537_8_0" index="0" speed="13.89" length="12.83" shape="1987.72,625.42 1991.08,626.03 1994.04,626.55 1997.00,627.05 2000.36,627.61"/>
    </edge>
    <edge id=":258758537_9" function="internal">
        <lane id=":258758537_9_0" index="0" speed="12.53" length="4.74" shape="1987.72,625.42 1988.99,626.06 1989.75,627.44 1989.95,629.18"/>
    </edge>
    <edge id=":258758537_10" function="internal">
        <lane id=":258758537_10_0" index="0" speed="13.89" length="2.41" shape="1987.72,625.42 1988.79,626.45 1989.05,627.34"/>
    </edge>
    <edge id=":258758537_12" function="internal">
        <lane id=":258758537_12_0" index="0" speed="12.53" length="3.22" shape="1989.95,629.18 1990.00,629.54 1989.74,632.38"/>
    </edge>
    <edge id=":258758537_13" function="internal">
        <lane id=":258758537_13_0" index="0" speed="13.89" length="2.41" shape="1989.05,627.34 1988.49,628.08 1987.13,628.67"/>
    </edge>
    <edge id=":258758538_0" function="internal">
        <lane id=":258758538_0_0" index="0" speed="12.53" length="7.90" shape="2017.79,527.15 2016.42,527.11 2015.37,527.52 2014.63,528.38 2014.21,529.68"/>
        <lane id=":258758538_0_1" index="1" speed="12.53" length="7.90" shape="2017.79,527.15 2015.00,526.87 2012.93,527.11 2011.58,527.85 2010.96,529.11"/>
        <lane id=":258758538_0_2" index="2" speed="12.53" length="7.90" shape="2017.79,527.15 2013.58,526.63 2010.49,526.69 2008.53,527.33 2007.71,528.55"/>
    </edge>
    <edge id=":258758538_3" function="internal">
        <lane id=":258758538_3_0" index="0" speed="13.89" length="4.82" shape="2017.79,527.15 2016.71,526.13 2016.44,525.24 2016.98,524.50 2018.34,523.89"/>
    </edge>
    <edge id=":258956662_0" function="internal">
        <lane id=":258956662_0_0" index="0" speed="11.18" length="12.45" shape="844.88,1188.83 841.94,1190.44 839.44,1191.86 836.97,1193.33 834.12,1195.10"/>
    </edge>
    <edge id=":258956662_1" function="internal">
        <lane id=":258956662_1_0" index="0" speed="16.70" length="10.55" shape="844.88,1188.83 842.18,1189.78 840.45,1189.21 839.69,1187.11 839.90,1183.49"/>
    </edge>
    <edge id=":258956662_2" function="internal">
        <lane id=":258956662_2_0" index="0" speed="11.18" length="4.82" shape="844.88,1188.83 843.40,1188.69 842.65,1188.16 842.62,1187.24 843.32,1185.93"/>
    </edge>
    <edge id=":258956662_3" function="internal">
        <lane id=":258956662_3_0" index="0" speed="16.70" length="11.91" shape="832.37,1192.30 835.40,1190.15 837.66,1187.97 839.16,1185.75 839.90,1183.49"/>
    </edge>
    <edge id=":258956662_4" function="internal">
        <lane id=":258956662_4_0" index="0" speed="11.18" length="12.67" shape="832.37,1192.30 835.25,1190.52 837.79,1189.01 840.35,1187.55 843.32,1185.93"/>
    </edge>
    <edge id=":258956662_5" function="internal">
        <lane id=":258956662_5_0" index="0" speed="11.18" length="4.82" shape="832.37,1192.30 833.86,1192.34 834.65,1192.83 834.74,1193.74 834.12,1195.10"/>
    </edge>
    <edge id=":258956662_6" function="internal">
        <lane id=":258956662_6_0" index="0" speed="16.70" length="6.44" shape="837.56,1197.42 837.68,1195.39 837.14,1194.33 835.96,1194.23 834.12,1195.10"/>
    </edge>
    <edge id=":258956662_7" function="internal">
        <lane id=":258956662_7_0" index="0" speed="22.22" length="14.12" shape="837.56,1197.42 838.18,1193.86 838.76,1190.46 839.33,1187.06 839.90,1183.49"/>
    </edge>
    <edge id=":258956662_8" function="internal">
        <lane id=":258956662_8_0" index="0" speed="16.70" length="13.23" shape="837.56,1197.42 838.53,1193.22 839.82,1189.91 841.42,1187.47 843.32,1185.93"/>
    </edge>
    <edge id=":258956663_0" function="internal">
        <lane id=":258956663_0_0" index="0" speed="18.06" length="7.87" shape="825.44,1284.19 824.15,1283.57 823.39,1282.22 823.16,1280.15 823.45,1277.35"/>
    </edge>
    <edge id=":258956663_1" function="internal">
        <lane id=":258956663_1_0" index="0" speed="13.89" length="4.82" shape="825.44,1284.19 824.36,1283.17 824.09,1282.29 824.63,1281.54 825.98,1280.93"/>
    </edge>
    <edge id=":258956663_2" function="internal">
        <lane id=":258956663_2_0" index="0" speed="22.22" length="9.51" shape="821.84,1286.73 823.45,1277.35"/>
    </edge>
    <edge id=":258956663_3" function="internal">