<?xml version="1.0" encoding="UTF-8"?>

<!-- generated on Mon Jun  9 00:09:00 2014 by SUMO polyconvert Version dev-SVN-r15797
<?xml version="1.0" encoding="UTF-8"?>

<configuration xmlns:xsi="http://www.w3.org/2001/XMLSchema-instance" xsi:noNamespaceSchemaLocation="http://sumo-sim.org/xsd/polyconvertConfiguration.xsd">

    <input>
        <net-file value="SanFrancisco6.net.xml"/>
        <osm-files value="SanFrancisco6.osm"/>
    </input>

    <output>
        <output-file value="SanFrancisco6.poly.xml"/>
    </output>

    <processing>
        <ignore-errors value="true"/>
    </processing>

</configuration>
-->

<shapes>
    <poly id="103336956" type="unknown" color="51,128,255" fill="1" layer="-1.00" shape="2103.03,1546.08 2117.85,1548.35 2111.20,1590.22 2104.29,1589.17 2107.87,1565.93 2100.16,1564.76 2103.03,1546.08"/>
    <poly id="103336957" type="unknown" color="51,128,255" fill="1" layer="-1.00" shape="2042.90,1549.35 2040.90,1565.26 2061.30,1568.29 2062.14,1563.23 2070.59,1564.62 2069.77,1569.59 2084.26,1571.79 2085.26,1566.00 2079.24,1565.01 2081.46,1551.63 2065.31,1548.97 2067.41,1536.34 2064.93,1535.94 2066.01,1529.45 2058.48,1528.21 2055.18,1527.67 2055.39,1526.39 2041.08,1524.05 2039.25,1535.21 2047.06,1536.48 2046.17,1541.90 2053.85,1543.16 2052.57,1550.93 2042.90,1549.35"/>
    <poly id="103336958" type="unknown" color="51,128,255" fill="1" layer="-1.00" shape="2036.01,1556.58 2034.69,1540.71 2001.74,1543.61 1996.54,1544.07 1991.87,1544.64 1990.49,1553.85 1987.26,1574.91 2024.16,1580.52 2025.64,1572.04 2017.41,1567.88 2018.62,1562.48 2028.43,1561.60 2028.12,1557.18 2036.01,1556.58"/>
    <poly id="103336959" type="unknown" color="51,128,255" fill="1" layer="-1.00" shape="2093.17,1591.18 2051.38,1584.76 2052.02,1580.56 2038.90,1578.60 2040.90,1565.26 2061.30,1568.29 2069.77,1569.59 2084.26,1571.79 2089.80,1572.62 2090.22,1569.78 2096.24,1570.67 2093.17,1591.18"/>
    <poly id="103336960" type="unknown" color="51,128,255" fill="1" layer="-1.00" shape="2110.64,1593.87 2111.20,1590.22 2117.85,1548.35 2123.48,1513.91 2121.99,1513.67 2105.34,1510.86 2101.46,1510.23 1999.82,1494.18 1994.11,1530.03 1991.87,1544.64 1990.49,1553.85 1987.26,1574.91 2024.16,1580.52 2051.38,1584.76 2093.17,1591.18 2110.64,1593.87"/>
    <poly id="103336961" type="unknown" color="51,128,255" fill="1" layer="-1.00" shape="2010.19,1533.04 2003.82,1532.05 2001.74,1543.61 1996.54,1544.07 1998.86,1531.20 1994.11,1530.03 1999.82,1494.18 2101.46,1510.23 2101.10,1512.07 2104.99,1512.68 2105.34,1510.86 2121.99,1513.67 2117.12,1538.16 2100.72,1535.24 2101.34,1531.25 2081.41,1528.06 2080.43,1533.23 2070.05,1531.52 2070.67,1526.46 2059.23,1524.52 2058.48,1528.21 2055.18,1527.67 2055.39,1526.39 2041.08,1524.05 2017.23,1520.73 2016.00,1528.37 2011.16,1527.75 2010.19,1533.04"/>
    <poly id="103339433" type="unknown" color="51,128,255" fill="1" layer="-1.00" shape="2691.98,1910.87 2702.81,1916.59 2715.16,1904.56 2712.59,1901.61 2708.67,1903.93 2694.60,1908.07 2692.23,1909.47 2691.98,1910.87"/>
    <poly id="103339434" type="unknown" color="51,128,255" fill="1" layer="-1.00" shape="2460.47,1760.36 2452.28,1748.21 2450.63,1749.37 2446.39,1746.28 2439.37,1735.43 2429.59,1733.72 2425.79,1736.64 2423.92,1733.81 2426.06,1732.41 2429.13,1713.02 2423.27,1704.06 2412.78,1702.23 2404.71,1748.50 2407.90,1746.52 2411.65,1752.07 2407.73,1754.51 2449.95,1761.83 2450.08,1760.07 2453.74,1760.91 2455.04,1759.51 2460.47,1760.36"/>
    <poly id="103339436" type="unknown" color="51,128,255" fill="1" layer="-1.00" shape="2674.98,1814.37 2669.47,1849.49 2665.04,1848.96 2664.92,1845.86 2653.91,1843.75 2652.18,1843.72 2652.16,1841.50 2650.05,1839.61 2635.31,1836.69 2638.13,1820.49 2632.35,1819.40 2633.82,1811.53 2635.93,1812.01 2636.38,1808.37 2674.98,1814.37"/>
    <poly id="103339440" type="unknown" color="51,128,255" fill="1" layer="-1.00" shape="2415.01,1685.08 2417.46,1670.99 2470.30,1680.25 2474.86,1687.21 2465.31,1742.53 2468.49,1743.14 2467.50,1749.25 2463.91,1748.66 2463.35,1752.75 2463.93,1754.16 2463.92,1755.57 2462.85,1756.26 2461.56,1756.73 2460.61,1756.25 2460.15,1754.84 2460.62,1753.79 2458.87,1751.07 2456.16,1750.69 2447.03,1737.95 2452.69,1702.36 2451.38,1702.36 2446.05,1706.08 2429.43,1702.56 2420.07,1689.10 2417.71,1688.74 2415.01,1685.08"/>
    <poly id="103339444" type="unknown" color="51,128,255" fill="1" layer="-1.00" shape="2645.83,1843.61 2647.03,1869.57 2652.48,1869.39 2665.78,1869.01 2665.04,1848.96 2664.92,1845.86 2653.91,1843.75 2652.18,1843.72 2645.83,1843.61"/>
    <poly id="103339449" type="unknown" color="51,128,255" fill="1" layer="-1.00" shape="2604.41,1903.30 2603.94,1886.45 2652.93,1885.08 2652.48,1869.39 2665.78,1869.01 2666.70,1901.56 2604.41,1903.30"/>
    <poly id="103339451" type="unknown" color="51,128,255" fill="1" layer="-1.00" shape="1761.26,1727.83 1768.79,1733.24 1770.15,1731.36 1768.08,1729.88 1777.59,1716.75 1786.24,1722.98 1789.84,1718.03 1775.74,1707.88 1761.26,1727.83"/>
    <poly id="114151111" type="unknown" color="51,128,255" fill="1" layer="-1.00" shape="2606.72,1042.41 2613.98,1000.22 2576.16,993.78 2571.98,1018.13 2568.91,1035.98 2581.00,1038.04 2606.72,1042.41"/>
    <poly id="114151121" type="unknown" color="51,128,255" fill="1" layer="-1.00" shape="2880.59,665.92 2951.94,678.03 2949.22,693.92 2932.96,691.16 2930.16,707.57 2916.82,705.30 2912.06,733.14 2870.30,726.06 2880.59,665.92"/>
    <poly id="117021463" type="unknown" color="51,128,255" fill="1" layer="-1.00" shape="738.33,1692.97 739.58,1685.94 750.04,1687.77 748.79,1694.82 738.33,1692.97"/>
    <poly id="126521651" type="unknown" color="51,128,255" fill="0" layer="-1.00" shape="3682.58,1222.09 3676.90,1228.94 3672.75,1232.86 3666.67,1240.09"/>
    <poly id="128240106" type="unknown" color="51,128,255" fill="1" layer="-1.00" shape="2399.73,1664.73 2326.21,1653.00 2312.13,1739.05 2385.50,1751.22 2399.73,1664.73"/>
    <poly id="128240107" type="unknown" color="51,128,255" fill="1" layer="-1.00" shape="3133.45,1996.30 3139.56,1983.18 3153.80,1989.78 3152.13,1993.47 3153.41,1994.43 3143.84,2014.82 3139.60,2012.80 3137.88,2006.72 3135.75,2005.84 3138.94,1999.09 3133.45,1996.30"/>
    <poly id="128240113" type="unknown" color="51,128,255" fill="1" layer="-1.00" shape="3132.98,1790.10 3179.35,1794.03 3179.73,1792.08 3133.62,1782.58 3132.32,1782.92 3131.13,1784.20 3130.76,1786.43 3131.22,1788.09 3132.98,1790.10"/>
    <poly id="128240115" type="unknown" color="51,128,255" fill="1" layer="-1.00" shape="3168.78,1920.65 3171.82,1914.22 3177.61,1916.94 3179.86,1912.20 3186.25,1915.20 3185.02,1917.79 3189.74,1920.00 3186.69,1926.43 3192.28,1929.06 3189.16,1935.63 3186.45,1934.36 3183.13,1941.38 3175.57,1937.82 3177.16,1934.45 3175.05,1933.46 3176.08,1931.29 3171.32,1929.05 3174.11,1923.16 3168.78,1920.65"/>
    <poly id="128240116" type="unknown" color="51,128,255" fill="1" layer="-1.00" shape="3118.94,2051.23 3121.10,2046.47 3123.57,2047.31 3130.04,2032.66 3139.22,2036.94 3146.28,2021.65 3137.10,2017.65 3135.14,2011.29 3130.06,2008.98 3134.77,1999.46 3129.26,1997.05 3126.56,1995.80 3116.59,2017.56 3118.86,2018.32 3117.99,2020.31 3121.14,2021.89 3110.11,2047.41 3118.94,2051.23"/>
    <poly id="128240125" type="unknown" color="51,128,255" fill="1" layer="-1.00" shape="3103.31,1817.24 3104.94,1807.65 3110.90,1808.65 3109.25,1818.24 3103.31,1817.24"/>
    <poly id="128240126" type="unknown" color="51,128,255" fill="1" layer="-1.00" shape="3103.44,2061.49 3108.61,2050.56 3119.69,2055.76 3118.71,2057.83 3121.43,2059.10 3117.25,2067.96 3103.44,2061.49"/>
    <poly id="128240127" type="unknown" color="51,128,255" fill="1" layer="-1.00" shape="3002.38,1868.86 3051.67,1860.01 3053.69,1858.53 3052.44,1851.12 3049.85,1849.81 3001.74,1858.52 2999.74,1859.14 2998.66,1860.37 2997.59,1862.48 2997.58,1864.36 2998.38,1866.48 2999.56,1867.90 3001.09,1868.85 3002.38,1868.86"/>
    <poly id="128240128" type="unknown" color="51,128,255" fill="1" layer="-1.00" shape="3126.34,1813.92 3124.70,1811.20 3124.12,1809.32 3124.02,1807.71 3125.49,1799.10 3181.18,1803.85 3184.73,1803.87 3190.87,1803.09 3195.73,1801.12 3200.81,1799.74 3204.35,1799.01 3214.26,1800.06 3215.08,1801.48 3214.59,1803.54 3126.34,1813.92"/>
    <poly id="128240130" type="unknown" color="51,128,255" fill="1" layer="-1.00" shape="3152.46,1957.86 3155.22,1951.41 3152.34,1946.87 3160.22,1930.56 3164.90,1932.94 3166.56,1932.32 3171.62,1934.59 3167.79,1944.01 3165.18,1944.89 3157.97,1960.71 3152.46,1957.86"/>
    <poly id="128240132" type="unknown" color="51,128,255" fill="1" layer="-1.00" shape="3058.43,1855.34 3057.40,1850.68 3058.72,1848.46 3112.48,1838.63 3114.85,1838.65 3117.33,1839.42 3120.03,1841.74 3121.18,1845.62 3121.17,1847.74 3119.86,1849.43 3103.08,1852.10 3102.82,1850.64 3089.08,1852.96 3089.36,1854.71 3079.20,1856.65 3078.74,1855.16 3065.98,1857.20 3065.75,1855.50 3060.20,1856.64 3058.43,1855.34"/>
    <poly id="128240133" type="unknown" color="51,128,255" fill="1" layer="-1.00" shape="3159.63,1960.83 3165.88,1947.33 3168.03,1948.30 3171.12,1941.61 3180.47,1945.91 3171.12,1966.11 3159.63,1960.83"/>
    <poly id="128240135" type="unknown" color="51,128,255" fill="1" layer="-1.00" shape="3155.47,2080.37 3158.23,2074.21 3170.82,2079.54 3172.62,2075.20 3174.03,2076.07 3177.03,2069.98 3173.37,2068.15 3175.40,2064.40 3176.49,2061.34 3176.86,2058.46 3176.88,2055.23 3176.32,2051.87 3175.39,2049.04 3173.99,2046.33 3172.82,2043.69 3170.94,2041.33 3168.83,2039.44 3166.13,2037.93 3161.18,2036.09 3143.47,2074.07 3147.71,2075.74 3147.17,2076.83 3155.47,2080.37"/>
    <poly id="128240136" type="unknown" color="51,128,255" fill="1" layer="-1.00" shape="3166.26,2032.28 3176.77,2009.65 3165.17,2004.31 3154.68,2026.94 3166.26,2032.28"/>
    <poly id="128240139" type="unknown" color="51,128,255" fill="1" layer="-1.00" shape="3151.66,1985.40 3137.40,1978.90 3144.30,1963.90 3149.42,1966.24 3151.46,1961.79 3160.60,1965.97 3151.66,1985.40"/>
    <poly id="128240142" type="unknown" color="51,128,255" fill="1" layer="-1.00" shape="3125.43,2051.95 3131.06,2039.52 3142.95,2044.88 3136.47,2059.17 3137.54,2059.64 3133.65,2068.21 3127.56,2065.47 3128.75,2062.85 3125.17,2061.24 3128.73,2053.43 3125.43,2051.95"/>
    <poly id="128240145" type="unknown" color="51,128,255" fill="1" layer="-1.00" shape="3208.30,1847.00 3210.12,1858.18 3214.96,1857.55 3223.42,1863.67 3225.01,1874.43 3222.16,1878.52 3224.62,1880.01 3226.77,1893.79 3225.70,1896.25 3228.87,1898.27 3230.50,1902.63 3228.34,1907.79 3222.89,1909.52 3213.81,1929.49 3214.02,1931.50 3213.31,1932.90 3211.65,1933.55 3209.65,1933.11 3208.83,1931.53 3201.54,1927.89 3202.13,1925.73 3200.25,1924.94 3199.80,1922.46 3202.19,1917.08 3204.32,1916.22 3206.24,1911.29 3201.30,1908.79 3200.15,1905.07 3202.17,1901.51 3203.70,1900.81 3201.70,1899.86 3198.16,1881.02 3195.05,1876.89 3191.49,1854.93 3192.67,1854.19 3193.38,1853.13 3194.54,1851.79 3195.27,1850.26 3195.54,1848.73 3208.30,1847.00"/>
    <poly id="128240146" type="unknown" color="51,128,255" fill="1" layer="-1.00" shape="3201.35,1955.23 3192.73,1975.05 3194.15,1975.81 3189.36,1985.49 3187.83,1984.77 3178.17,2006.07 3170.67,2002.77 3167.81,1993.05 3172.49,1984.37 3171.19,1983.84 3180.18,1962.78 3181.36,1963.45 3183.52,1958.58 3187.87,1960.60 3191.82,1951.17 3201.35,1955.23"/>
    <poly id="128240149" type="unknown" color="51,128,255" fill="1" layer="-1.00" shape="3155.28,1860.00 3165.80,1858.56 3167.92,1873.90 3169.87,1873.63 3170.52,1878.31 3175.06,1877.69 3176.28,1886.47 3179.45,1886.03 3182.45,1907.69 3182.78,1910.12 3162.62,1912.89 3155.28,1860.00"/>
    <poly id="132238432" type="unknown" color="51,128,255" fill="1" layer="-1.00" shape="3905.91,1301.94 3909.45,1274.67 3923.60,1276.81 3921.15,1291.26 3912.22,1302.79 3905.91,1301.94"/>
    <poly id="136409939" type="unknown" color="51,128,255" fill="1" layer="-1.00" shape="3676.00,531.18 3673.21,552.45 3702.67,557.58 3703.35,553.48 3720.44,556.66 3722.77,545.60 3723.47,545.68 3724.72,538.33 3715.93,536.80 3721.73,503.83 3718.47,503.19 3715.00,521.57 3707.03,520.28 3704.41,522.38 3691.86,533.54 3676.00,531.18"/>
    <poly id="144489227" type="unknown" color="51,128,255" fill="1" layer="-1.00" shape="3247.36,892.52 3240.42,898.66 3268.95,903.24 3269.77,896.41 3247.36,892.52"/>
    <poly id="146634582" type="unknown" color="51,128,255" fill="1" layer="-1.00" shape="3442.61,1102.96 3444.08,1094.01 3438.97,1093.21 3436.14,1111.46 3435.96,1112.34 3437.03,1112.51 3436.82,1113.85 3437.93,1114.03 3437.65,1115.82 3438.46,1115.95 3440.58,1116.27 3442.61,1102.96"/>
    <poly id="146634583" type="unknown" color="51,128,255" fill="1" layer="-1.00" shape="3435.31,1118.99 3440.06,1119.72 3438.04,1132.76 3433.28,1132.03 3435.31,1118.99"/>
    <poly id="146634586" type="unknown" color="51,128,255" fill="1" layer="-1.00" shape="3438.97,1093.21 3432.00,1092.13 3429.17,1110.40 3436.14,1111.46 3438.97,1093.21"/>
    <poly id="146634587" type="unknown" color="51,128,255" fill="1" layer="-1.00" shape="3477.13,1165.33 3469.74,1164.25 3466.68,1185.10 3474.07,1186.17 3477.13,1165.33"/>
    <poly id="146634588" type="unknown" color="51,128,255" fill="1" layer="-1.00" shape="3479.55,1152.94 3472.91,1151.90 3471.32,1162.71 3477.98,1163.68 3479.55,1152.94"/>
    <poly id="146634591" type="unknown" color="51,128,255" fill="1" layer="-1.00" shape="3457.70,1114.02 3459.93,1098.85 3449.05,1097.19 3448.03,1103.78 3445.75,1118.79 3456.69,1120.47 3457.70,1114.02"/>
    <poly id="146634592" type="unknown" color="51,128,255" fill="1" layer="-1.00" shape="3480.24,1155.66 3476.66,1181.58 3479.72,1182.00 3479.05,1186.86 3489.60,1188.31 3492.58,1166.80 3485.15,1165.79 3486.43,1156.51 3480.24,1155.66"/>
    <poly id="146634594" type="unknown" color="51,128,255" fill="1" layer="-1.00" shape="3448.03,1103.78 3442.61,1102.96 3440.58,1116.27 3438.46,1115.95 3437.98,1119.05 3440.56,1119.45 3440.21,1121.79 3445.17,1122.54 3445.75,1118.79 3448.03,1103.78"/>
    <poly id="147507703" type="unknown" color="51,128,255" fill="1" layer="-1.00" shape="3459.98,714.00 3459.10,719.26 3470.34,721.02 3476.64,722.05 3477.44,717.36 3473.48,716.68 3473.36,717.69 3470.50,717.25 3468.99,715.39 3459.98,714.00"/>
    <poly id="147580028" type="unknown" color="51,128,255" fill="1" layer="-1.00" shape="3503.16,678.08 3508.43,678.98 3506.81,688.47 3502.98,687.82 3502.67,689.58 3506.58,690.25 3505.24,698.14 3501.71,697.54 3501.04,701.48 3504.64,702.09 3503.49,708.86 3500.16,708.30 3499.67,711.17 3502.98,711.72 3501.63,719.69 3496.22,718.78 3497.39,712.08 3501.45,688.30 3503.16,678.08"/>
    <poly id="148666771" type="unknown" color="51,128,255" fill="1" layer="-1.00" shape="3503.52,567.83 3518.99,570.41 3514.69,595.97 3513.80,601.23 3511.97,612.10 3507.57,611.37 3501.16,610.30 3496.50,609.51 3499.05,594.38 3501.44,580.16 3503.52,567.83"/>
    <poly id="148666773" type="unknown" color="51,128,255" fill="1" layer="-1.00" shape="3549.68,632.06 3558.73,633.34 3557.91,638.46 3572.72,640.90 3580.33,642.17 3578.78,651.40 3589.44,653.18 3594.13,626.18 3581.25,624.08 3572.60,622.66 3561.95,621.00 3549.68,632.06"/>
    <poly id="148666775" type="unknown" color="51,128,255" fill="1" layer="-1.00" shape="3547.33,661.36 3553.92,662.46 3557.91,638.46 3551.32,637.38 3547.33,661.36"/>
    <poly id="148666776" type="unknown" color="51,128,255" fill="1" layer="-1.00" shape="3494.01,609.10 3496.55,593.97 3481.23,591.41 3478.67,606.54 3494.01,609.10"/>
    <poly id="148666777" type="unknown" color="51,128,255" fill="1" layer="-1.00" shape="3485.69,564.85 3503.52,567.83 3501.44,580.16 3483.61,577.19 3485.69,564.85"/>
    <poly id="148666779" type="unknown" color="51,128,255" fill="1" layer="-1.00" shape="3499.10,622.51 3505.47,623.57 3507.18,613.40 3500.82,612.34 3499.10,622.51"/>
    <poly id="148666780" type="unknown" color="51,128,255" fill="1" layer="-1.00" shape="3514.69,595.97 3527.23,598.07 3531.53,572.50 3518.99,570.41 3514.69,595.97"/>
    <poly id="148666781" type="unknown" color="51,128,255" fill="1" layer="-1.00" shape="3513.80,601.23 3526.10,603.29 3524.27,614.15 3511.97,612.10 3513.80,601.23"/>
    <poly id="148666783" type="unknown" color="51,128,255" fill="1" layer="-1.00" shape="3483.61,577.19 3501.44,580.16 3499.05,594.38 3496.55,593.97 3481.23,591.41 3483.61,577.19"/>
    <poly id="148666786" type="unknown" color="51,128,255" fill="1" layer="-1.00" shape="3527.23,598.07 3526.70,601.25 3532.71,602.25 3537.55,573.50 3531.53,572.50 3527.23,598.07"/>
    <poly id="148666787" type="unknown" color="51,128,255" fill="1" layer="-1.00" shape="3526.10,603.29 3532.40,604.21 3532.71,602.25 3537.55,573.50 3561.33,577.86 3558.85,591.98 3531.41,615.39 3524.27,614.15 3526.10,603.29"/>
    <poly id="151980462" type="unknown" color="51,128,255" fill="1" layer="-1.00" shape="3263.11,690.45 3271.02,691.74 3271.32,689.91 3294.07,693.63 3293.77,695.47 3302.75,696.94 3306.17,676.20 3296.45,674.61 3296.20,676.11 3252.25,668.93 3250.39,680.31 3254.35,680.95 3254.58,679.57 3264.63,681.22 3263.11,690.45"/>
    <poly id="153269396" type="unknown" color="51,128,255" fill="0" layer="-1.00" shape="4331.94,1244.14 4152.49,1115.76 4140.46,1110.81 4129.14,1108.45 4103.50,1144.99 4103.23,1148.64 4108.06,1155.34 4114.98,1161.93 4294.05,1288.42 4295.75,1291.18 4295.97,1294.10 4271.16,1327.77 4269.07,1328.98 4266.72,1328.37 4169.80,1258.45 4166.39,1257.77 4110.33,1218.41 4081.24,1260.50 4235.41,1378.27 4204.23,1417.50 4033.64,1288.76 4001.36,1284.80 3991.26,1298.64 4041.87,1708.93 3993.22,1752.26 3829.67,1570.63 3775.70,1620.71 3871.47,1770.30 3834.29,1794.14 3730.31,1630.95 3694.65,1652.58 3661.27,1674.90 3731.03,1872.48 3687.86,1889.51 3617.35,1689.67 3613.57,1681.89 3608.52,1664.25 3556.87,1694.55 3534.43,2015.69 3525.54,2015.09 3477.41,2011.82 3473.26,2011.54 3489.92,1767.11 3425.43,1793.72 3418.82,1777.65 3414.19,1780.22 3417.35,1787.86 3415.82,1793.18 3410.11,1795.51 3408.76,1799.27 3412.17,1800.15 3411.29,1804.34"/>
    <poly id="153269402" type="unknown" color="51,128,255" fill="0" layer="-1.00" shape="1097.86,1761.77 1113.01,1793.11 1175.28,1764.80"/>
    <poly id="161382302" type="unknown" color="51,128,255" fill="1" layer="-1.00" shape="3221.94,579.58 3224.35,564.72 3195.25,560.03 3192.83,574.89 3215.35,578.52 3221.94,579.58"/>
    <poly id="16140759" type="unknown" color="51,128,255" fill="0" layer="-1.00" shape="962.46,8484.54 946.29,8489.30 933.99,8518.03"/>
    <poly id="161504253" type="unknown" color="51,128,255" fill="1" layer="-1.00" shape="857.13,716.81 853.90,716.27 853.83,716.62 847.42,715.55 842.79,714.77 841.88,720.14 840.55,727.97 842.52,728.30 839.99,743.21 852.30,745.28 855.31,727.57 856.26,721.98 857.13,716.81"/>
    <poly id="161843741" type="unknown" color="51,128,255" fill="1" layer="-1.00" shape="2496.27,1193.30 2489.39,1234.63 2490.58,1234.83 2493.61,1235.32 2504.93,1237.19 2507.25,1237.57 2513.29,1238.58 2520.16,1197.24 2496.27,1193.30"/>
    <poly id="161843742" type="unknown" color="51,128,255" fill="1" layer="-1.00" shape="3260.83,1178.22 3258.50,1177.83 3256.56,1177.51 3242.61,1175.20 3240.85,1185.78 3248.91,1187.11 3251.88,1187.61 3256.90,1188.44 3262.69,1189.40 3264.46,1178.82 3263.02,1178.58 3260.83,1178.22"/>
    <poly id="161843744" type="unknown" color="51,128,255" fill="1" layer="-1.00" shape="2791.06,985.49 2728.11,974.94 2725.07,992.94 2722.02,1010.99 2775.94,1020.03 2775.57,1022.22 2802.64,1026.76 2806.05,1006.58 2788.01,1003.55 2791.06,985.49"/>
    <poly id="161843746" type="unknown" color="51,128,255" fill="1" layer="-1.00" shape="2611.21,1061.70 2603.75,1060.57 2597.24,1102.80 2594.61,1120.04 2590.99,1143.45 2633.75,1149.98 2643.29,1087.93 2608.00,1082.54 2611.21,1061.70"/>
    <poly id="161843748" type="unknown" color="51,128,255" fill="1" layer="-1.00" shape="2639.12,1094.71 2635.03,1122.19 2597.39,1116.63 2601.49,1089.15 2639.12,1094.71"/>
    <poly id="161843749" type="unknown" color="51,128,255" fill="1" layer="-1.00" shape="2767.36,1016.76 2771.45,992.78 2728.98,985.58 2724.89,1009.57 2767.36,1016.76"/>
    <poly id="161843750" type="unknown" color="51,128,255" fill="1" layer="-1.00" shape="2778.02,1018.38 2779.96,1006.53 2803.34,1010.32 2801.40,1022.16 2778.02,1018.38"/>
    <poly id="162056245" type="unknown" color="51,128,255" fill="1" layer="-1.00" shape="3195.92,735.45 3222.22,739.96 3221.01,747.03 3225.59,747.81 3219.41,783.58 3188.53,778.28 3195.92,735.45"/>
    <poly id="162056250" type="unknown" color="51,128,255" fill="1" layer="-1.00" shape="3142.70,619.01 3082.87,609.30 3076.65,646.99 3116.13,653.44 3117.49,645.23 3122.69,646.08 3122.45,647.59 3137.58,650.06 3142.70,619.01"/>
    <poly id="162056251" type="unknown" color="51,128,255" fill="1" layer="-1.00" shape="3221.04,675.72 3214.27,717.10 3234.33,720.36 3255.50,723.81 3258.84,703.03 3261.01,689.81 3262.22,682.40 3221.04,675.72"/>
    <poly id="162056253" type="unknown" color="51,128,255" fill="1" layer="-1.00" shape="3127.20,616.47 3142.70,619.01 3137.58,650.06 3122.45,647.59 3122.69,646.08 3117.49,645.23 3116.13,653.44 3076.65,646.99 3082.87,609.30 3094.37,611.19 3092.58,622.05 3088.51,621.39 3087.15,629.65 3118.29,634.74 3121.00,618.31 3126.74,619.25 3127.20,616.47"/>
    <poly id="165579428" type="unknown" color="51,128,255" fill="1" layer="-1.00" shape="2072.42,2049.10 2067.70,2045.24 2062.08,2039.68 2058.79,2035.68 2062.83,2032.00 2067.03,2035.09 2072.92,2041.05 2076.21,2045.06 2072.42,2049.10"/>
    <poly id="165579429" type="unknown" color="51,128,255" fill="1" layer="-1.00" shape="2195.61,1917.93 2195.73,1921.90 2194.00,1928.89 2191.27,1937.04 2186.61,1946.42 2177.90,1960.24 2169.69,1970.42 2159.60,1979.98 2146.55,1989.67 2144.18,1991.06 2142.26,1991.12 2140.50,1990.04 2139.83,1988.56 2139.96,1986.45 2145.37,1970.96 2151.59,1958.19 2159.10,1946.72 2169.68,1934.32 2177.26,1926.56 2183.24,1921.68 2188.19,1918.00 2191.02,1916.20 2194.23,1915.42 2195.61,1917.93"/>
    <poly id="165579430" type="unknown" color="51,128,255" fill="1" layer="-1.00" shape="2131.74,1979.22 2130.33,1984.54 2128.62,1988.61 2125.16,1994.47 2112.43,2010.61 2106.72,2016.10 2105.19,2016.56 2104.14,2015.97 2103.55,2014.91 2103.56,2013.50 2106.78,2007.28 2119.17,1989.61 2123.86,1984.56 2127.29,1981.96 2131.74,1979.22"/>
    <poly id="165580087" type="unknown" color="51,128,255" fill="1" layer="-1.00" shape="2144.64,1936.29 2146.65,1934.53 2145.02,1931.34 2142.10,1927.33 2139.47,1924.14 2138.08,1919.42 2133.88,1915.53 2129.21,1914.98 2126.60,1913.50 2123.40,1913.12 2123.96,1916.18 2125.45,1919.31 2126.30,1924.00 2130.14,1927.67 2134.21,1928.47 2137.65,1931.65 2141.76,1934.74 2144.64,1936.29"/>
    <poly id="165585930" type="unknown" color="51,128,255" fill="1" layer="-1.00" shape="2122.76,1951.48 2121.45,1955.47 2119.86,1958.23 2115.31,1963.31 2094.15,1982.18 2072.06,2000.78 2067.02,2004.10 2065.18,2004.44 2063.80,2003.91 2062.42,2002.66 2061.66,2001.48 2061.43,2000.13 2061.68,1998.66 2066.11,1993.34 2087.28,1972.78 2109.87,1954.70 2114.13,1952.04 2116.61,1950.64 2120.53,1949.19 2122.76,1951.48"/>
    <poly id="165586834" type="unknown" color="51,128,255" fill="1" layer="-1.00" shape="2157.47,1921.79 2152.28,1917.12 2173.69,1891.85 2181.79,1883.85 2187.94,1881.53 2186.48,1888.81 2179.85,1898.02 2157.47,1921.79"/>
    <poly id="165601339" type="unknown" color="51,128,255" fill="1" layer="-1.00" shape="2664.59,1967.49 2655.21,1978.02 2647.08,1986.05 2634.67,1996.57 2618.72,2009.33 2598.96,2023.87 2592.18,2027.65 2597.08,2021.86 2615.11,2005.28 2630.99,1992.23 2643.34,1981.91 2652.39,1974.94 2664.59,1967.49"/>
    <poly id="166222997" type="unknown" color="51,128,255" fill="1" layer="-1.00" shape="3646.48,701.86 3643.23,719.92 3650.53,721.22 3651.64,715.05 3653.77,703.16 3646.48,701.86"/>
    <poly id="166284928" type="unknown" color="51,128,255" fill="1" layer="-1.00" shape="2735.93,1332.76 2749.74,1335.05 2752.69,1319.47 2751.89,1318.90 2735.93,1332.76"/>
    <poly id="167289268" type="unknown" color="51,128,255" fill="1" layer="-1.00" shape="3658.63,716.30 3651.64,715.05 3653.77,703.16 3660.79,704.40 3658.63,716.30"/>
    <poly id="167289351" type="unknown" color="51,128,255" fill="1" layer="-1.00" shape="3658.26,718.34 3658.63,716.30 3660.79,704.40 3667.77,705.66 3665.30,719.23 3662.51,718.74 3662.31,719.83 3660.75,719.56 3660.89,718.82 3658.26,718.34"/>
    <poly id="16761472" type="unknown" color="51,128,255" fill="1" layer="-1.00" shape="370.39,1542.49 360.97,1598.65 892.69,1687.19 902.13,1631.03 730.77,1602.49 370.39,1542.49"/>
    <poly id="170705182" type="unknown" color="51,128,255" fill="1" layer="-1.00" shape="2587.40,1118.94 2594.61,1120.04 2597.24,1102.80 2590.03,1101.70 2587.86,1115.88 2587.40,1118.94"/>
    <poly id="173897603" type="unknown" color="51,128,255" fill="1" layer="-1.00" shape="2162.24,527.96 2161.62,527.85 2161.11,530.78 2162.04,530.94 2161.81,532.24 2160.72,532.05 2160.11,535.53 2161.20,535.73 2161.00,536.82 2160.10,536.66 2159.48,540.22 2188.30,545.24 2190.43,533.07 2189.26,532.87 2189.30,532.58 2180.53,531.05 2180.11,533.41 2169.73,531.61 2170.13,529.34 2162.24,527.96"/>
    <poly id="174814076" type="unknown" color="51,128,255" fill="1" layer="-1.00" shape="3555.77,1217.67 3555.30,1219.05 3554.39,1220.18 3553.75,1220.65 3552.38,1221.15 3550.97,1221.17 3549.60,1220.70 3548.91,1220.23 3547.99,1219.11 3547.56,1218.01 3547.47,1216.57 3547.73,1215.51 3548.49,1214.28 3549.29,1213.58 3550.62,1213.00 3551.96,1212.89 3553.37,1213.25 3554.33,1213.86 3555.55,1215.58 3555.77,1217.67"/>
    <poly id="175080539" type="unknown" color="51,128,255" fill="1" layer="-1.00" shape="2737.23,1538.40 2748.19,1540.11 2767.07,1543.05 2768.54,1533.84 2771.85,1513.18 2741.67,1508.16 2737.23,1538.40"/>
    <poly id="182804607" type="unknown" color="51,128,255" fill="1" layer="-1.00" shape="2831.69,1736.32 2826.31,1768.66 2825.18,1768.47 2823.68,1777.47 2790.63,1772.00 2790.31,1773.91 2783.13,1772.72 2784.73,1763.10 2789.81,1763.94 2790.23,1761.42 2787.86,1761.03 2787.69,1761.97 2784.78,1761.49 2786.53,1751.04 2793.87,1752.26 2793.65,1753.59 2812.08,1756.63 2815.90,1733.70 2831.69,1736.32"/>
    <poly id="182807847" type="unknown" color="51,128,255" fill="1" layer="-1.00" shape="2581.86,1569.60 2596.05,1484.87 2680.74,1498.93 2680.36,1501.18 2673.41,1542.66 2613.66,1532.73 2612.72,1538.33 2612.20,1541.44 2599.39,1539.32 2597.42,1551.10 2610.11,1553.21 2609.08,1559.41 2607.05,1571.50 2606.68,1573.72 2581.86,1569.60"/>
    <poly id="182809251" type="unknown" color="51,128,255" fill="1" layer="-1.00" shape="2625.60,1577.41 2625.67,1575.47 2627.37,1567.49 2644.66,1570.12 2646.79,1557.67 2648.45,1557.96 2644.76,1579.97 2625.60,1577.41"/>
    <poly id="182809253" type="unknown" color="51,128,255" fill="1" layer="-1.00" shape="2682.92,1501.64 2680.36,1501.18 2673.41,1542.66 2613.66,1532.73 2612.72,1538.33 2614.09,1538.36 2613.73,1540.24 2615.09,1540.25 2614.61,1542.42 2643.08,1547.45 2642.60,1548.68 2641.60,1548.58 2639.95,1557.39 2641.55,1557.76 2641.11,1559.43 2613.05,1554.93 2611.84,1559.75 2609.08,1559.41 2607.05,1571.50 2609.76,1571.90 2609.64,1572.60 2625.67,1575.47 2627.37,1567.49 2644.66,1570.12 2646.79,1557.67 2648.45,1557.96 2652.10,1558.59 2651.68,1559.87 2666.78,1562.14 2666.96,1560.70 2670.15,1561.34 2668.36,1574.00 2666.51,1584.21 2708.04,1590.38 2721.96,1506.38 2683.28,1499.76 2682.92,1501.64"/>
    <poly id="182809328" type="unknown" color="51,128,255" fill="1" layer="-1.00" shape="2509.00,1485.16 2516.67,1486.49 2516.36,1488.43 2508.11,1495.38 2490.78,1492.88 2491.74,1486.55 2492.39,1482.31 2493.40,1475.78 2494.52,1468.39 2504.48,1469.93 2501.80,1485.40 2508.81,1486.28 2509.00,1485.16"/>
    <poly id="182916017" type="unknown" color="51,128,255" fill="1" layer="-1.00" shape="2648.32,1684.94 2660.09,1611.85 2668.91,1611.71 2669.81,1606.14 2670.25,1603.41 2620.17,1595.45 2606.94,1677.97 2648.32,1684.94"/>
    <poly id="182919005" type="unknown" color="51,128,255" fill="1" layer="-1.00" shape="2247.41,1513.10 2248.24,1508.31 2248.64,1506.03 2251.64,1488.68 2278.74,1493.07 2278.38,1495.31 2279.50,1495.49 2278.69,1500.52 2277.40,1500.33 2274.62,1517.45 2247.41,1513.10"/>
    <poly id="182919173" type="unknown" color="51,128,255" fill="1" layer="-1.00" shape="2059.37,1503.63 2055.39,1526.39 2041.08,1524.05 2017.23,1520.73 2016.00,1528.37 2011.16,1527.75 2010.19,1533.04 2003.82,1532.05 1998.86,1531.20 1994.11,1530.03 1999.82,1494.18 2059.37,1503.63"/>
    <poly id="182919854" type="unknown" color="51,128,255" fill="1" layer="-1.00" shape="2894.91,1364.59 2865.94,1359.57 2864.75,1366.43 2865.02,1366.47 2869.40,1367.23 2868.55,1372.11 2864.17,1371.35 2863.14,1377.27 2891.82,1382.23 2894.91,1364.59"/>
    <poly id="185739081" type="unknown" color="51,128,255" fill="1" layer="-1.00" shape="1019.39,1189.33 1019.94,1187.92 1021.53,1183.00 1022.81,1179.46 1024.43,1175.83 1025.84,1171.97 1027.80,1167.66 1029.16,1164.55 1030.35,1162.09 1032.09,1158.23 1034.52,1152.55 1035.81,1147.77 1037.22,1141.63 1038.86,1134.46 1039.68,1131.05 1040.38,1129.12 1058.09,1131.85 1060.10,1122.40 1075.98,1125.12 1076.92,1120.34 1093.27,1122.84 1078.46,1196.33 1078.02,1198.96 1019.39,1189.33"/>
    <poly id="185739650" type="unknown" color="51,128,255" fill="1" layer="-1.00" shape="1075.47,1123.34 1078.88,1105.63 1067.01,1103.92 1064.06,1121.31 1075.47,1123.34"/>
    <poly id="18583270" type="unknown" color="51,128,255" fill="1" layer="-1.00" shape="3119.91,1018.84 3122.96,1000.87 3137.50,988.12 3170.43,959.26 3186.44,944.88 3219.26,950.72 3257.63,956.80 3253.18,989.79 3246.27,1039.30 3189.09,1030.05 3152.96,1024.05 3119.91,1018.84"/>
    <poly id="186406557" type="unknown" color="51,128,255" fill="1" layer="-1.00" shape="1840.07,1461.74 1833.73,1460.47 1804.51,1615.27 1790.19,1636.78 1798.46,1642.60 1805.65,1648.42 1834.42,1604.61 1845.85,1571.88 1849.19,1545.79 1844.31,1541.71 1840.38,1541.08 1855.21,1464.48 1840.07,1461.74"/>