<?xml version="1.0" encoding="UTF-8"?>

<!-- generated on Mon Mar 31 00:09:29 2014 by SUMO netconvert Version dev-SVN-r15797
<?xml version="1.0" encoding="UTF-8"?>

<configuration xmlns:xsi="http://www.w3.org/2001/XMLSchema-instance" xsi:noNamespaceSchemaLocation="http://sumo-sim.org/xsd/netconvertConfiguration.xsd">

    <input>
        <osm-files value="SanFrancisco.osm"/>
    </input>

    <output>
        <output-file value="SanFrancisco2.net.xml"/>
    </output>

    <projection>
        <proj.utm value="true"/>
    </projection>

</configuration>
-->

<net version="0.13" xmlns:xsi="http://www.w3.org/2001/XMLSchema-instance" xsi:noNamespaceSchemaLocation="http://sumo-sim.org/xsd/net_file.xsd">

    <location netOffset="-549291.64,-4175975.42" convBoundary="0.00,0.00,3046.72,4669.80" origBoundary="-122.440476,37.729720,-122.405917,37.771716" projParameter="+proj=utm +zone=10 +ellps=WGS84 +datum=WGS84 +units=m +no_defs"/>

    <edge id=":1420257444_0" function="internal">
        <lane id=":1420257444_0_0" index="0" allow="pedestrian" speed="8.33" length="3.44" shape="1928.61,2507.41 1928.40,2507.14 1927.79,2506.91 1926.78,2506.74 1925.37,2506.61"/>
    </edge>
    <edge id=":1420257444_1" function="internal">
        <lane id=":1420257444_1_0" index="0" allow="pedestrian" speed="8.33" length="6.99" shape="1928.61,2507.41 1928.89,2500.43"/>
    </edge>
    <edge id=":1420257444_2" function="internal">
        <lane id=":1420257444_2_0" index="0" allow="pedestrian" speed="8.33" length="4.68" shape="1928.61,2507.41 1928.69,2505.69 1929.01,2504.49 1929.57,2503.80 1930.37,2503.63"/>
    </edge>
    <edge id=":1420257444_3" function="internal">
        <lane id=":1420257444_3_0" index="0" allow="pedestrian" speed="8.33" length="4.82" shape="1928.61,2507.41 1929.41,2506.16 1930.22,2505.73 1931.06,2506.13 1931.91,2507.35"/>
    </edge>
    <edge id=":1420257444_4" function="internal">
        <lane id=":1420257444_4_0" index="0" allow="pedestrian" speed="8.33" length="3.30" shape="1935.18,2507.41 1933.75,2507.29 1932.72,2507.24 1932.11,2507.26 1931.91,2507.35"/>
    </edge>
    <edge id=":1420257444_5" function="internal">
        <lane id=":1420257444_5_0" index="0" allow="pedestrian" speed="8.33" length="9.85" shape="1935.18,2507.41 1925.37,2506.61"/>
    </edge>
    <edge id=":1420257444_6" function="internal">
        <lane id=":1420257444_6_0" index="0" allow="pedestrian" speed="8.33" length="10.65" shape="1935.18,2507.41 1932.27,2506.73 1930.25,2505.34 1929.12,2503.24 1928.89,2500.43"/>
    </edge>
    <edge id=":1420257444_7" function="internal">
        <lane id=":1420257444_7_0" index="0" allow="pedestrian" speed="8.33" length="8.93" shape="1935.18,2507.41 1932.56,2508.27 1930.89,2507.93 1930.16,2506.38 1930.37,2503.63"/>
    </edge>
    <edge id=":1420257444_8" function="internal">
        <lane id=":1420257444_8_0" index="0" allow="pedestrian" speed="8.33" length="3.49" shape="1932.18,2500.65 1930.37,2503.63"/>
    </edge>
    <edge id=":1420257444_9" function="internal">
        <lane id=":1420257444_9_0" index="0" allow="pedestrian" speed="8.33" length="6.71" shape="1932.18,2500.65 1931.91,2507.35"/>
    </edge>
    <edge id=":1420257444_10" function="internal">
        <lane id=":1420257444_10_0" index="0" allow="pedestrian" speed="8.33" length="9.05" shape="1932.18,2500.65 1925.37,2506.61"/>
    </edge>
    <edge id=":1420257444_11" function="internal">
        <lane id=":1420257444_11_0" index="0" allow="pedestrian" speed="8.33" length="4.82" shape="1932.18,2500.65 1931.27,2501.83 1930.42,2502.18 1929.63,2501.72 1928.89,2500.43"/>
    </edge>
    <edge id=":1420257444_12" function="internal">
        <lane id=":1420257444_12_0" index="0" allow="pedestrian" speed="8.33" length="4.84" shape="1925.79,2503.33 1927.07,2503.22 1928.01,2502.70 1928.62,2501.77 1928.89,2500.43"/>
    </edge>
    <edge id=":1420257444_13" function="internal">
        <lane id=":1420257444_13_0" index="0" allow="pedestrian" speed="8.33" length="4.60" shape="1925.79,2503.33 1930.37,2503.63"/>
    </edge>
    <edge id=":1420257444_14" function="internal">
        <lane id=":1420257444_14_0" index="0" allow="pedestrian" speed="8.33" length="8.08" shape="1925.79,2503.33 1928.44,2503.73 1930.34,2504.53 1931.50,2505.74 1931.91,2507.35"/>
    </edge>
    <edge id=":1420257444_15" function="internal">
        <lane id=":1420257444_15_0" index="0" allow="pedestrian" speed="8.33" length="4.83" shape="1925.79,2503.33 1926.91,2504.30 1927.22,2505.17 1926.70,2505.94 1925.37,2506.61"/>
    </edge>
    <edge id=":1420257447_0" function="internal">
        <lane id=":1420257447_0_0" index="0" speed="18.06" length="5.01" shape="1944.67,2517.94 1943.30,2518.16 1942.28,2518.74 1941.63,2519.67 1941.33,2520.95"/>
    </edge>
    <edge id=":1420257447_1" function="internal">
        <lane id=":1420257447_1_0" index="0" speed="18.06" length="10.83" shape="1944.67,2517.94 1940.43,2517.85 1937.43,2517.31 1935.69,2516.31 1935.21,2514.86"/>
    </edge>
    <edge id=":1420257447_2" function="internal">
        <lane id=":1420257447_2_0" index="0" allow="pedestrian" speed="8.33" length="7.52" shape="1944.67,2517.94 1942.47,2518.66 1941.06,2518.37 1940.44,2517.07 1940.63,2514.75"/>
    </edge>
    <edge id=":1420257447_3" function="internal">
        <lane id=":1420257447_3_0" index="0" allow="pedestrian" speed="18.06" length="3.44" shape="1942.09,2511.64 1940.63,2514.75"/>
    </edge>
    <edge id=":1420257447_4" function="internal">
        <lane id=":1420257447_4_0" index="0" speed="27.78" length="9.34" shape="1942.09,2511.64 1941.33,2520.95"/>
        <lane id=":1420257447_4_1" index="1" speed="27.78" length="9.34" shape="1938.80,2511.37 1938.04,2520.68"/>
    </edge>
    <edge id=":1420257447_6" function="internal">
        <lane id=":1420257447_6_0" index="0" speed="27.78" length="3.66" shape="1938.80,2511.37 1939.21,2513.59 1938.75,2514.91"/>
    </edge>
    <edge id=":1420257447_11" function="internal">
        <lane id=":1420257447_11_0" index="0" speed="27.78" length="3.66" shape="1938.75,2514.91 1937.41,2515.34 1935.21,2514.86"/>
    </edge>
    <edge id=":1420257447_7" function="internal">
        <lane id=":1420257447_7_0" index="0" speed="27.78" length="5.57" shape="1931.46,2520.14 1931.92,2514.59"/>
        <lane id=":1420257447_7_1" index="1" speed="27.78" length="5.57" shape="1934.75,2520.41 1935.21,2514.86"/>
    </edge>
    <edge id=":1420257447_9" function="internal">
        <lane id=":1420257447_9_0" index="0" allow="pedestrian" speed="18.06" length="6.93" shape="1934.75,2520.41 1935.29,2517.99 1936.45,2516.25 1938.23,2515.17 1938.50,2515.12"/>
    </edge>
    <edge id=":1420257447_10" function="internal">
        <lane id=":1420257447_10_0" index="0" speed="27.78" length="2.41" shape="1934.75,2520.41 1935.67,2519.24 1936.53,2518.90"/>
    </edge>
    <edge id=":1420257447_12" function="internal">
        <lane id=":1420257447_12_0" index="0" speed="18.06" length="2.16" shape="1938.50,2515.12 1940.63,2514.75"/>
    </edge>
    <edge id=":1420257447_13" function="internal">
        <lane id=":1420257447_13_0" index="0" speed="27.78" length="2.41" shape="1936.53,2518.90 1937.32,2519.38 1938.04,2520.68"/>
    </edge>
    <edge id=":1420257454_0" function="internal">
        <lane id=":1420257454_0_0" index="0" allow="delivery" speed="6.94" length="4.15" shape="1890.66,2504.29 1889.73,2504.15 1889.11,2503.60 1888.79,2502.64 1888.78,2501.27"/>
    </edge>
    <edge id=":1420257454_1" function="internal">
        <lane id=":1420257454_1_0" index="0" allow="pedestrian" speed="8.33" length="5.06" shape="1890.66,2504.29 1889.13,2503.95 1888.41,2503.31 1888.50,2502.34 1889.40,2501.06"/>
    </edge>
    <edge id=":1420257454_2" function="internal">
        <lane id=":1420257454_2_0" index="0" allow="delivery" speed="5.56" length="1.50" shape="1888.65,2502.76 1888.78,2501.27"/>
    </edge>
    <edge id=":1420257454_3" function="internal">
        <lane id=":1420257454_3_0" index="0" allow="pedestrian" speed="6.94" length="1.97" shape="1888.65,2502.76 1888.75,2502.03 1888.91,2501.51 1889.12,2501.18 1889.40,2501.06"/>
    </edge>
    <edge id=":1420257456_0" function="internal">
        <lane id=":1420257456_0_0" index="0" allow="pedestrian" speed="8.33" length="5.24" shape="1949.47,2518.21 1948.10,2518.34 1947.10,2518.92 1946.46,2519.95 1946.18,2521.42"/>
    </edge>
    <edge id=":1420257456_1" function="internal">
        <lane id=":1420257456_1_0" index="0" allow="pedestrian" speed="8.33" length="4.60" shape="1949.47,2518.21 1944.87,2517.93"/>
    </edge>
    <edge id=":1420257456_2" function="internal">
        <lane id=":1420257456_2_0" index="0" allow="pedestrian" speed="8.33" length="6.93" shape="1949.47,2518.21 1946.75,2517.94 1944.79,2517.52 1943.60,2516.94 1943.17,2516.19"/>
    </edge>
    <edge id=":1420257456_3" function="internal">
        <lane id=":1420257456_3_0" index="0" allow="pedestrian" speed="8.33" length="4.82" shape="1949.47,2518.21 1948.28,2517.31 1947.92,2516.46 1948.38,2515.66 1949.66,2514.91"/>
    </edge>
    <edge id=":1420257456_4" function="internal">
        <lane id=":1420257456_4_0" index="0" allow="pedestrian" speed="8.33" length="5.38" shape="1946.19,2511.54 1946.48,2512.94 1947.15,2513.97 1948.21,2514.63 1949.66,2514.91"/>
    </edge>
    <edge id=":1420257456_5" function="internal">
        <lane id=":1420257456_5_0" index="0" allow="pedestrian" speed="8.33" length="9.88" shape="1946.19,2511.54 1946.18,2521.42"/>
    </edge>
    <edge id=":1420257456_6" function="internal">
        <lane id=":1420257456_6_0" index="0" allow="pedestrian" speed="8.33" length="6.90" shape="1946.19,2511.54 1946.25,2514.32 1946.05,2516.31 1945.59,2517.51 1944.87,2517.93"/>
    </edge>
    <edge id=":1420257456_7" function="internal">
        <lane id=":1420257456_7_0" index="0" allow="pedestrian" speed="8.33" length="8.11" shape="1946.19,2511.54 1947.18,2513.84 1947.00,2515.38 1945.67,2516.16 1943.17,2516.19"/>
    </edge>
    <edge id=":1420257456_8" function="internal">
        <lane id=":1420257456_8_0" index="0" allow="pedestrian" speed="8.33" length="2.75" shape="1940.83,2514.75 1943.17,2516.19"/>
    </edge>
    <edge id=":1420257456_9" function="internal">
        <lane id=":1420257456_9_0" index="0" allow="pedestrian" speed="8.33" length="8.84" shape="1940.83,2514.75 1949.66,2514.91"/>
    </edge>
    <edge id=":1420257456_10" function="internal">
        <lane id=":1420257456_10_0" index="0" allow="pedestrian" speed="8.33" length="9.93" shape="1940.83,2514.75 1943.32,2515.10 1945.04,2516.33 1945.99,2518.44 1946.18,2521.42"/>
    </edge>
    <edge id=":1420257456_11" function="internal">
        <lane id=":1420257456_11_0" index="0" allow="pedestrian" speed="8.33" length="7.52" shape="1940.83,2514.75 1943.03,2514.03 1944.44,2514.32 1945.05,2515.62 1944.87,2517.93"/>
    </edge>
    <edge id=":1420257456_12" function="internal">
        <lane id=":1420257456_12_0" index="0" allow="pedestrian" speed="8.33" length="3.85" shape="1942.88,2521.23 1944.87,2517.93"/>
    </edge>
    <edge id=":1420257456_13" function="internal">
        <lane id=":1420257456_13_0" index="0" allow="pedestrian" speed="8.33" length="5.04" shape="1942.88,2521.23 1943.17,2516.19"/>
    </edge>
    <edge id=":1420257456_14" function="internal">
        <lane id=":1420257456_14_0" index="0" allow="pedestrian" speed="8.33" length="10.56" shape="1942.88,2521.23 1943.45,2518.32 1944.77,2516.30 1946.84,2515.17 1949.66,2514.91"/>
    </edge>
    <edge id=":1420257456_15" function="internal">
        <lane id=":1420257456_15_0" index="0" allow="pedestrian" speed="8.33" length="4.82" shape="1942.88,2521.23 1943.78,2520.04 1944.62,2519.68 1945.42,2520.14 1946.18,2521.42"/>
    </edge>
    <edge id=":1420257457_0" function="internal">
        <lane id=":1420257457_0_0" index="0" speed="11.18" length="9.54" shape="1934.59,2511.69 1925.09,2510.92"/>
    </edge>
    <edge id=":1420257457_1" function="internal">
        <lane id=":1420257457_1_0" index="0" allow="pedestrian" speed="9.75" length="7.68" shape="1934.59,2511.69 1932.00,2511.26 1930.14,2510.43 1929.01,2509.22 1928.68,2507.90"/>
    </edge>
    <edge id=":1420257457_2" function="internal">
        <lane id=":1420257457_2_0" index="0" speed="11.18" length="4.04" shape="1934.59,2511.69 1932.18,2512.34 1930.69,2511.95"/>
    </edge>
    <edge id=":1420257457_9" function="internal">
        <lane id=":1420257457_9_0" index="0" speed="9.75" length="0.30" shape="1928.68,2507.90 1928.61,2507.61"/>
    </edge>
    <edge id=":1420257457_10" function="internal">
        <lane id=":1420257457_10_0" index="0" speed="11.18" length="4.04" shape="1930.69,2511.95 1930.11,2510.52 1930.44,2508.05"/>
    </edge>
    <edge id=":1420257457_3" function="internal">
        <lane id=":1420257457_3_0" index="0" speed="9.75" length="1.56" shape="1931.91,2507.55 1930.44,2508.05"/>
    </edge>
    <edge id=":1420257457_4" function="internal">
        <lane id=":1420257457_4_0" index="0" speed="9.75" length="8.66" shape="1931.91,2507.55 1931.51,2509.24 1930.24,2510.36 1928.10,2510.92 1925.09,2510.92"/>
    </edge>
    <edge id=":1420257457_5" function="internal">
        <lane id=":1420257457_5_0" index="0" allow="pedestrian" speed="8.33" length="4.82" shape="1931.91,2507.55 1931.11,2508.80 1930.29,2509.23 1929.46,2508.84 1928.61,2507.61"/>
    </edge>
    <edge id=":1420257457_6" function="internal">
        <lane id=":1420257457_6_0" index="0" allow="pedestrian" speed="9.75" length="3.29" shape="1925.36,2507.63 1926.78,2507.73 1927.80,2507.76 1928.41,2507.72 1928.61,2507.61"/>
    </edge>
    <edge id=":1420257457_7" function="internal">
        <lane id=":1420257457_7_0" index="0" speed="11.18" length="5.10" shape="1925.36,2507.63 1930.44,2508.05"/>
    </edge>
    <edge id=":1420257457_8" function="internal">
        <lane id=":1420257457_8_0" index="0" speed="11.18" length="2.41" shape="1925.36,2507.63 1926.52,2508.55 1926.87,2509.41"/>
    </edge>
    <edge id=":1420257457_11" function="internal">
        <lane id=":1420257457_11_0" index="0" speed="11.18" length="2.41" shape="1926.87,2509.41 1926.39,2510.20 1925.09,2510.92"/>
    </edge>
    <edge id=":1420257465_0" function="internal">
        <lane id=":1420257465_0_0" index="0" speed="15.28" length="3.70" shape="1943.15,2515.99 1944.36,2512.50"/>
    </edge>
    <edge id=":1420257465_1" function="internal">
        <lane id=":1420257465_1_0" index="0" speed="15.28" length="10.91" shape="1943.15,2515.99 1943.42,2512.99 1944.62,2510.94 1946.77,2509.82 1949.86,2509.64"/>
    </edge>
    <edge id=":1420257465_2" function="internal">
        <lane id=":1420257465_2_0" index="0" allow="pedestrian" speed="8.33" length="8.11" shape="1943.15,2515.99 1942.16,2513.69 1942.34,2512.15 1943.68,2511.37 1946.18,2511.34"/>
    </edge>
    <edge id=":1420257465_3" function="internal">
        <lane id=":1420257465_3_0" index="0" allow="pedestrian" speed="15.28" length="3.76" shape="1949.59,2512.93 1946.18,2511.34"/>
    </edge>
    <edge id=":1420257465_4" function="internal">
        <lane id=":1420257465_4_0" index="0" speed="22.22" length="5.25" shape="1949.59,2512.93 1944.36,2512.50"/>
    </edge>
    <edge id=":1420257465_5" function="internal">
        <lane id=":1420257465_5_0" index="0" speed="22.22" length="2.41" shape="1949.59,2512.93 1948.43,2512.00 1948.08,2511.15"/>
    </edge>
    <edge id=":1420257465_9" function="internal">
        <lane id=":1420257465_9_0" index="0" speed="22.22" length="2.41" shape="1948.08,2511.15 1948.56,2510.36 1949.86,2509.64"/>
    </edge>
    <edge id=":1420257465_6" function="internal">
        <lane id=":1420257465_6_0" index="0" speed="22.22" length="8.79" shape="1941.10,2508.92 1949.86,2509.64"/>
    </edge>
    <edge id=":1420257465_7" function="internal">
        <lane id=":1420257465_7_0" index="0" allow="pedestrian" speed="15.28" length="6.02" shape="1941.10,2508.92 1943.28,2509.22 1944.85,2509.73 1945.82,2510.43 1946.18,2511.34"/>
    </edge>
    <edge id=":1420257465_8" function="internal">
        <lane id=":1420257465_8_0" index="0" speed="22.22" length="3.53" shape="1941.10,2508.92 1943.26,2508.59 1944.52,2509.08"/>
    </edge>
    <edge id=":1420257465_10" function="internal">
        <lane id=":1420257465_10_0" index="0" speed="22.22" length="3.53" shape="1944.52,2509.08 1944.89,2510.38 1944.36,2512.50"/>
    </edge>
    <edge id=":1420257475_0" function="internal">
        <lane id=":1420257475_0_0" index="0" allow="pedestrian" speed="8.33" length="7.90" shape="1974.36,2548.83 1973.93,2550.96 1972.92,2552.43 1971.34,2553.26 1969.18,2553.44"/>
    </edge>
    <edge id=":1420257475_1" function="internal">
        <lane id=":1420257475_1_0" index="0" allow="pedestrian" speed="8.33" length="2.41" shape="1974.36,2548.83 1973.46,2550.02 1972.61,2550.38"/>
    </edge>
    <edge id=":1420257475_4" function="internal">
        <lane id=":1420257475_4_0" index="0" speed="8.33" length="2.41" shape="1972.61,2550.38 1971.81,2549.92 1971.06,2548.64"/>
    </edge>
    <edge id=":1420257475_2" function="internal">
        <lane id=":1420257475_2_0" index="0" allow="pedestrian" speed="8.33" length="2.58" shape="1969.37,2550.14 1970.08,2550.09 1970.59,2549.82 1970.92,2549.33 1971.06,2548.64"/>
    </edge>
    <edge id=":1420257475_3" function="internal">
        <lane id=":1420257475_3_0" index="0" allow="pedestrian" speed="8.33" length="2.41" shape="1969.37,2550.14 1970.56,2551.04 1970.92,2551.89"/>
    </edge>
    <edge id=":1420257475_5" function="internal">
        <lane id=":1420257475_5_0" index="0" speed="8.33" length="2.41" shape="1970.92,2551.89 1970.46,2552.69 1969.18,2553.44"/>
    </edge>
    <edge id=":1420257476_0" function="internal">
        <lane id=":1420257476_0_0" index="0" allow="pedestrian" speed="8.33" length="11.78" shape="1903.72,2505.17 1892.20,2502.71"/>
    </edge>
    <edge id=":1420257476_1" function="internal">
        <lane id=":1420257476_1_0" index="0" allow="pedestrian" speed="8.33" length="8.49" shape="1903.72,2505.17 1895.31,2503.99"/>
    </edge>
    <edge id=":1420257476_2" function="internal">
        <lane id=":1420257476_2_0" index="0" allow="pedestrian" speed="8.33" length="28.35" shape="1903.72,2505.17 1932.00,2503.26"/>
    </edge>
    <edge id=":1420257476_3" function="internal">
        <lane id=":1420257476_3_0" index="0" allow="pedestrian" speed="8.33" length="32.05" shape="1903.72,2505.17 1908.49,2496.50 1913.73,2493.31 1919.42,2495.58 1925.59,2503.31"/>
    </edge>
    <edge id=":1420257476_4" function="internal">
        <lane id=":1420257476_4_0" index="0" allow="pedestrian" speed="8.33" length="7.43" shape="1929.13,2496.78 1925.59,2503.31"/>
    </edge>
    <edge id=":1420257476_5" function="internal">
        <lane id=":1420257476_5_0" index="0" allow="pedestrian" speed="8.33" length="37.40" shape="1929.13,2496.78 1892.20,2502.71"/>
    </edge>
    <edge id=":1420257476_6" function="internal">
        <lane id=":1420257476_6_0" index="0" allow="pedestrian" speed="8.33" length="34.58" shape="1929.13,2496.78 1895.31,2503.99"/>
    </edge>
    <edge id=":1420257476_7" function="internal">
        <lane id=":1420257476_7_0" index="0" allow="pedestrian" speed="8.33" length="10.35" shape="1929.13,2496.78 1932.28,2497.32 1933.81,2498.58 1933.72,2500.56 1932.00,2503.26"/>
    </edge>
    <edge id=":1420257476_8" function="internal">
        <lane id=":1420257476_8_0" index="0" allow="pedestrian" speed="8.33" length="42.47" shape="1889.60,2501.05 1932.00,2503.26"/>
    </edge>
    <edge id=":1420257476_9" function="internal">
        <lane id=":1420257476_9_0" index="0" allow="pedestrian" speed="8.33" length="36.07" shape="1889.60,2501.05 1896.62,2501.22 1907.59,2501.94 1918.56,2502.77 1925.59,2503.31"/>
    </edge>
    <edge id=":1420257476_10" function="internal">
        <lane id=":1420257476_10_0" index="0" allow="pedestrian" speed="8.33" length="3.56" shape="1889.60,2501.05 1890.76,2501.09 1891.59,2501.38 1892.07,2501.92 1892.20,2502.71"/>
    </edge>
    <edge id=":1420257476_11" function="internal">
        <lane id=":1420257476_11_0" index="0" allow="pedestrian" speed="8.33" length="9.39" shape="1889.60,2501.05 1892.13,2499.64 1893.93,2499.66 1894.99,2501.11 1895.31,2503.99"/>
    </edge>
    <edge id=":1420257476_12" function="internal">
        <lane id=":1420257476_12_0" index="0" allow="pedestrian" speed="8.33" length="6.90" shape="1888.76,2506.15 1895.31,2503.99"/>
    </edge>
    <edge id=":1420257476_13" function="internal">
        <lane id=":1420257476_13_0" index="0" allow="pedestrian" speed="8.33" length="43.75" shape="1888.76,2506.15 1895.56,2504.29 1910.33,2504.70 1925.13,2505.11 1932.00,2503.26"/>
    </edge>
    <edge id=":1420257476_14" function="internal">
        <lane id=":1420257476_14_0" index="0" allow="pedestrian" speed="8.33" length="37.77" shape="1888.76,2506.15 1891.14,2504.00 1898.07,2502.81 1909.55,2502.58 1925.59,2503.31"/>
    </edge>
    <edge id=":1420257476_15" function="internal">
        <lane id=":1420257476_15_0" index="0" allow="pedestrian" speed="8.33" length="7.10" shape="1888.76,2506.15 1888.33,2504.00 1888.76,2502.71 1890.05,2502.28 1892.20,2502.71"/>
    </edge>
    <edge id=":1420257477_0" function="internal">
        <lane id=":1420257477_0_0" index="0" speed="11.18" length="4.61" shape="1894.87,2508.44 1890.27,2508.06"/>
    </edge>
    <edge id=":1420257477_1" function="internal">
        <lane id=":1420257477_1_0" index="0" allow="pedestrian" speed="9.75" length="6.77" shape="1894.87,2508.44 1892.17,2508.11 1890.25,2507.66 1889.12,2507.07 1888.76,2506.35"/>
    </edge>
    <edge id=":1420257477_2" function="internal">
        <lane id=":1420257477_2_0" index="0" speed="11.18" length="2.41" shape="1894.87,2508.44 1893.70,2507.51 1893.36,2506.66"/>
    </edge>
    <edge id=":1420257477_9" function="internal">
        <lane id=":1420257477_9_0" index="0" speed="11.18" length="2.41" shape="1893.36,2506.66 1893.84,2505.87 1895.14,2505.15"/>
    </edge>
    <edge id=":1420257477_3" function="internal">
        <lane id=":1420257477_3_0" index="0" speed="9.75" length="4.13" shape="1892.19,2502.91 1892.35,2503.79 1892.89,2504.46 1893.82,2504.91 1895.14,2505.15"/>
    </edge>
    <edge id=":1420257477_4" function="internal">
        <lane id=":1420257477_4_0" index="0" speed="9.75" length="5.91" shape="1892.19,2502.91 1892.00,2505.21 1891.61,2506.84 1891.04,2507.79 1890.27,2508.06"/>
    </edge>
    <edge id=":1420257477_5" function="internal">
        <lane id=":1420257477_5_0" index="0" allow="pedestrian" speed="8.33" length="7.10" shape="1892.19,2502.91 1892.63,2505.06 1892.20,2506.35 1890.91,2506.78 1888.76,2506.35"/>
    </edge>
    <edge id=":1420257477_6" function="internal">
        <lane id=":1420257477_6_0" index="0" allow="pedestrian" speed="9.75" length="1.86" shape="1889.61,2504.69 1888.76,2506.35"/>
    </edge>
    <edge id=":1420257477_7" function="internal">
        <lane id=":1420257477_7_0" index="0" speed="11.18" length="5.54" shape="1889.61,2504.69 1895.14,2505.15"/>
    </edge>
    <edge id=":1420257477_8" function="internal">
        <lane id=":1420257477_8_0" index="0" speed="11.18" length="2.50" shape="1889.61,2504.69 1891.04,2505.29 1891.63,2506.05"/>
    </edge>
    <edge id=":1420257477_10" function="internal">
        <lane id=":1420257477_10_0" index="0" speed="11.18" length="2.50" shape="1891.63,2506.05 1891.37,2506.97 1890.27,2508.06"/>
    </edge>
    <edge id=":1420257489_0" function="internal">
        <lane id=":1420257489_0_0" index="0" speed="27.78" length="6.89" shape="1942.92,2501.56 1942.36,2508.43"/>
        <lane id=":1420257489_0_1" index="1" speed="27.78" length="6.89" shape="1939.63,2501.29 1939.07,2508.16"/>
    </edge>
    <edge id=":1420257489_2" function="internal">
        <lane id=":1420257489_2_0" index="0" allow="pedestrian" speed="18.06" length="7.06" shape="1939.63,2501.29 1939.30,2504.13 1938.82,2506.12 1938.20,2507.29 1937.43,2507.63"/>
    </edge>
    <edge id=":1420257489_3" function="internal">
        <lane id=":1420257489_3_0" index="0" speed="27.78" length="2.41" shape="1939.63,2501.29 1938.71,2502.46 1937.85,2502.80"/>
    </edge>
    <edge id=":1420257489_11" function="internal">
        <lane id=":1420257489_11_0" index="0" speed="27.78" length="2.41" shape="1937.85,2502.80 1937.07,2502.32 1936.35,2501.02"/>
    </edge>
    <edge id=":1420257489_4" function="internal">
        <lane id=":1420257489_4_0" index="0" speed="18.06" length="4.33" shape="1930.57,2503.65 1931.56,2503.55 1932.31,2503.03 1932.81,2502.10 1933.06,2500.75"/>
    </edge>
    <edge id=":1420257489_5" function="internal">
        <lane id=":1420257489_5_0" index="0" speed="18.06" length="10.47" shape="1930.57,2503.65 1934.40,2504.25 1937.10,2505.20 1938.65,2506.50 1939.07,2508.16"/>
    </edge>
    <edge id=":1420257489_6" function="internal">
        <lane id=":1420257489_6_0" index="0" allow="pedestrian" speed="8.33" length="11.58" shape="1930.57,2503.65 1933.78,2502.07 1935.99,2502.21 1937.21,2504.06 1937.43,2507.63"/>
    </edge>
    <edge id=":1420257489_7" function="internal">
        <lane id=":1420257489_7_0" index="0" allow="pedestrian" speed="18.06" length="4.94" shape="1932.49,2507.61 1937.43,2507.63"/>
    </edge>
    <edge id=":1420257489_8" function="internal">
        <lane id=":1420257489_8_0" index="0" speed="27.78" length="6.88" shape="1932.49,2507.61 1933.06,2500.75"/>
        <lane id=":1420257489_8_1" index="1" speed="27.78" length="6.88" shape="1935.78,2507.88 1936.35,2501.02"/>
    </edge>
    <edge id=":1420257489_10" function="internal">
        <lane id=":1420257489_10_0" index="0" speed="27.78" length="2.41" shape="1935.78,2507.88 1936.70,2506.72 1937.56,2506.38"/>
    </edge>
    <edge id=":1420257489_12" function="internal">
        <lane id=":1420257489_12_0" index="0" speed="27.78" length="2.41" shape="1937.56,2506.38 1938.35,2506.85 1939.07,2508.16"/>
    </edge>
    <edge id=":1455218241_0" function="internal">
        <lane id=":1455218241_0_0" index="0" speed="7.64" length="4.41" shape="1025.80,2786.79 1024.42,2786.83 1023.41,2787.18 1022.77,2787.86 1022.49,2788.85"/>
    </edge>
    <edge id=":1455218241_1" function="internal">
        <lane id=":1455218241_1_0" index="0" speed="7.64" length="10.35" shape="1025.80,2786.79 1023.03,2786.17 1021.12,2784.82 1020.09,2782.72 1019.92,2779.89"/>
    </edge>
    <edge id=":1455218241_2" function="internal">
        <lane id=":1455218241_2_0" index="0" allow="pedestrian" speed="1.39" length="4.82" shape="1025.80,2786.79 1024.63,2785.87 1024.28,2785.02 1024.75,2784.23 1026.05,2783.50"/>
    </edge>
    <edge id=":1455218241_3" function="internal">
        <lane id=":1455218241_3_0" index="0" allow="pedestrian" speed="7.64" length="5.01" shape="1023.21,2780.16 1023.29,2781.53 1023.79,2782.55 1024.71,2783.20 1026.05,2783.50"/>
    </edge>
    <edge id=":1455218241_4" function="internal">
        <lane id=":1455218241_4_0" index="0" speed="13.89" length="8.71" shape="1023.21,2780.16 1022.49,2788.85"/>
    </edge>
    <edge id=":1455218241_5" function="internal">
        <lane id=":1455218241_5_0" index="0" speed="13.89" length="2.41" shape="1023.21,2780.16 1022.28,2781.33 1021.43,2781.67"/>
    </edge>
    <edge id=":1455218241_9" function="internal">
        <lane id=":1455218241_9_0" index="0" speed="13.89" length="2.41" shape="1021.43,2781.67 1020.64,2781.19 1019.92,2779.89"/>
    </edge>
    <edge id=":1455218241_6" function="internal">
        <lane id=":1455218241_6_0" index="0" speed="13.89" length="9.30" shape="1019.15,2789.16 1019.92,2779.89"/>
    </edge>
    <edge id=":1455218241_7" function="internal">
        <lane id=":1455218241_7_0" index="0" allow="pedestrian" speed="7.64" length="6.98" shape="1019.15,2789.16 1019.77,2786.50 1021.13,2784.67 1022.91,2783.82"/>
    </edge>
    <edge id=":1455218241_8" function="internal">
        <lane id=":1455218241_8_0" index="0" speed="13.89" length="2.45" shape="1019.15,2789.16 1019.87,2787.83 1020.66,2787.33"/>
    </edge>
    <edge id=":1455218241_10" function="internal">
        <lane id=":1455218241_10_0" index="0" speed="7.64" length="3.19" shape="1022.91,2783.82 1023.22,2783.67 1026.05,2783.50"/>
    </edge>
    <edge id=":1455218241_11" function="internal">
        <lane id=":1455218241_11_0" index="0" speed="13.89" length="2.45" shape="1020.66,2787.33 1021.54,2787.67 1022.49,2788.85"/>
    </edge>
    <edge id=":1468604601_0" function="internal">
        <lane id=":1468604601_0_0" index="0" speed="13.89" length="4.82" shape="2252.93,1680.17 2252.07,1678.96 2251.97,1678.04 2252.65,1677.42 2254.10,1677.08"/>
    </edge>
    <edge id=":1563088355_0" function="internal">
        <lane id=":1563088355_0_0" index="0" allow="pedestrian" speed="8.33" length="4.82" shape="1106.81,2775.94 1107.72,2774.77 1108.57,2774.41 1109.36,2774.88 1110.10,2776.17"/>
    </edge>
    <edge id=":1563088366_0" function="internal">
        <lane id=":1563088366_0_0" index="0" allow="pedestrian" speed="4.86" length="9.37" shape="1111.83,2793.54 1102.49,2792.70"/>
    </edge>
    <edge id=":1563088366_1" function="internal">
        <lane id=":1563088366_1_0" index="0" allow="pedestrian" speed="8.33" length="10.26" shape="1111.83,2793.54 1109.14,2792.86 1107.29,2791.47 1106.26,2789.36 1106.07,2786.54"/>
    </edge>
    <edge id=":1563088366_2" function="internal">
        <lane id=":1563088366_2_0" index="0" allow="pedestrian" speed="8.33" length="2.41" shape="1111.83,2793.54 1110.68,2792.59 1110.36,2791.73"/>
    </edge>
    <edge id=":1563088366_9" function="internal">
        <lane id=":1563088366_9_0" index="0" speed="8.33" length="2.41" shape="1110.36,2791.73 1110.85,2790.95 1112.17,2790.26"/>
    </edge>
    <edge id=":1563088366_3" function="internal">