<?xml version="1.0" encoding="UTF-8"?>

<!-- generated on Thu Apr 10 23:05:03 2014 by SUMO duarouter Version dev-SVN-r15797
<?xml version="1.0" encoding="UTF-8"?>

<configuration xmlns:xsi="http://www.w3.org/2001/XMLSchema-instance" xsi:noNamespaceSchemaLocation="http://sumo-sim.org/xsd/duarouterConfiguration.xsd">

    <input>
        <net-file value="SanFrancisco3.net.xml"/>
        <trip-files value="SanFrancisco3.trips.xml"/>
    </input>

    <output>
        <output-file value="SanFrancisco3.rou.xml"/>
    </output>

    <processing>
        <ignore-errors value="true"/>
    </processing>

</configuration>
-->

<routes xmlns:xsi="http://www.w3.org/2001/XMLSchema-instance" xsi:noNamespaceSchemaLocation="http://sumo-sim.org/xsd/routes_file.xsd">
    <vehicle id="0" depart="0.00">
        <route edges="8919173#0 8917284#2 8917284#3 8917284#4 8917284#5 29481846#2 29481846#3 254759915#1 254759915#2 254759915#3 254759914 254396707#0 254396707#1 254396707#2 254396707#3 254396707#4 254396707#5 254396707#6 254396707#7 225806029#8 225806029#9 225806029#10 225806029#11 225806029#12 27054207#1"/>
    </vehicle>
    <vehicle id="1" depart="1.00">
        <route edges="225806029#7 225806029#8 225806029#9 100400947#8 27398071#0 27398071#1 27398071#2 27398071#3 12247498#0"/>
    </vehicle>
    <vehicle id="2" depart="2.00">
        <route edges="224200965#6 224941795#1 224941795#2 225516724 225516725 24335482#0 24335482#1 30831679 100400947#13 100400947#14"/>
    </vehicle>
    <vehicle id="4" depart="4.00">
        <route edges="-224200965#8 85644941#4 85644941#5 24335481#0 24335481#1 225516710 224316517 -225516723"/>
    </vehicle>
    <vehicle id="5" depart="5.00">
        <route edges="8919173#3 8919173#4 -263108751#1 -263108751#0 -224199010#3 262933359#1 262933359#2 -24335480#6 84733302#7 25448764#0 -25448776#1 25448769#0 -117020460#1 25448772#0 25448772#1 -25448777#1 25448777#1"/>
    </vehicle>
    <vehicle id="6" depart="6.00">
        <route edges="-263108751#3 -263108751#2 8919173#5 8919173#6 8919173#7 8919173#8 8919173#9 8919173#10 30831505"/>
    </vehicle>
    <vehicle id="7" depart="7.00">
        <route edges="133781796#1 -162931971#1 -162931971#0 -30831679 -24335482#1 -24335482#0 -225516725 -225516724 -24335481#1 -24335481#0 -85644941#5 -85644941#4"/>
    </vehicle>
    <vehicle id="8" depart="8.00">
        <route edges="-8917284#2 8917284#2 8917284#3 8917284#4 8917284#5 29481846#2 29481846#3 254759915#1 254759915#2 254759915#3 254759914 254396707#0 254396707#1 -162931971#1 -162931971#0 -30831679 -142961038#4 -142961038#3 -142961038#2 12247497#5 -32965234#1"/>
    </vehicle>
    <vehicle id="9" depart="9.00">
        <route edges="8919251 84733296 84733287 23880808 84733302#0 8917284#7 8917284#8 112408726#0 112408726#1 112408726#2 112408726#3 91181763#0 91181763#1 91181763#2 91181763#3 224200969#0 224200969#1 224200969#2 30831490#0 30831490#1 30831490#2 225806029#4 225806029#5 86303778#1"/>
    </vehicle>
    <vehicle id="10" depart="10.00">
        <route edges="8919163#8 -8919163#8 -8919163#7 -8919163#6 -8919163#5 -263108751#2 -263108751#1 -263108751#0 8919288#2 262933356#0 254759915#0 254759915#1 254759915#2 254759915#3 254759914 254396707#0 254396707#1 24203847 133781793#0 133781793#1 84733294#0 84733309#2"/>
    </vehicle>
    <vehicle id="12" depart="12.00">
        <route edges="-224316516#0 -254396712 -254396713#1 -254396713#0 254396716#0 254396716#1 254396716#2 254396716#3 262933359#0 224199010#3 263108751#0 263108751#1 263108751#2 8919163#5 8919163#6 8919163#7 8919163#8"/>
    </vehicle>
    <vehicle id="13" depart="13.00">
        <route edges="254396716#5 -254759909#0 254759913 254759915#0 254759915#1 254759915#2 254759915#3 254759914 254396707#0 254396707#1 24203847 133781793#0 112408726#3 91181763#0 -91181763#0"/>
    </vehicle>
    <vehicle id="14" depart="14.00">
        <route edges="-8915506#0 -8915075#1 -8915075#0 -8915074#0 8917893#1 8919826#0 215919657 8917893#4 8917431#0 8917431#1 24603666#1 24603666#2 84733275#0 84733275#1 84733275#2 91181765#0 91181765#1 91181762 133781796#0 133781796#1 -162931971#1 -162931971#0 -30831679 -24335482#1 -24335482#0 -225516725 -225516724 -24335481#1 -24335481#0 -85644941#5 -85644941#4 224200965#8"/>
    </vehicle>
    <vehicle id="15" depart="15.00">
        <route edges="36948490 -12247498#0 12247498#0"/>
    </vehicle>
    <vehicle id="16" depart="16.00">
        <route edges="84733260#0 -8921114 133781730#3 133781730#4 84733289 84733284#0 84733284#1 84733309#0 84733275#2 91181765#0 91181765#1 91181762 133781796#0 133781796#1 -162931971#1 -162931971#0 100400947#13 100400947#14 254396716#0 254396716#1 254396716#2 254396716#3 262933359#0 262933359#1 262933359#2 -225516700#1 -225516700#0 -85562509#3 -85562509#2 -85562509#1 -85644919#7 84733302#13"/>
    </vehicle>
    <vehicle id="17" depart="17.00">
        <route edges="-224200972#1 -224200972#0 -12247498#3 -12247498#2 -12247498#1 -12247498#0 254306573#0 30831490#0 30831490#1 30831490#2 225806029#4 225806029#5 225806029#6"/>
    </vehicle>
    <vehicle id="18" depart="18.00">
        <route edges="85562509#0 85562509#1 85562509#2 85562509#3 225516700#0 225516700#1 8919288#0 8919288#1 8919288#2 254396716#5 254759909#1"/>
    </vehicle>
    <vehicle id="19" depart="19.00">
        <route edges="225806029#10 142961038#0 27398072 100400947#9 100400947#10 100400947#11 100400947#12 100400947#13 100400947#14 254396716#0 254396716#1 254396716#2 254396716#3 262933359#0 224199010#3 263108751#0 263108751#1 263108751#2 8919163#5 8919163#6 24335480#10"/>
    </vehicle>
    <vehicle id="20" depart="20.00">
        <route edges="100400947#10 100400947#11 100400947#12 100400947#13 100400947#14 254396713#0 254396713#1 254396712"/>
    </vehicle>
    <vehicle id="21" depart="21.00">
        <route edges="-206302933 206302933 206302932 24603666#2 84733275#0 84733275#1 84733275#2 91181765#0 91181765#1 91181762 133781796#0 35976977 254396707#3 254396707#4 254396707#5 254396707#6 254396707#7 225806029#8 225806029#9 225806029#10 225806029#11 225806029#12 -27054207#0 27054207#0"/>
    </vehicle>
    <vehicle id="22" depart="22.00">
        <route edges="-225516700#0 225516700#0 225516700#1 24335480#7 24335480#8 24335480#9 24335480#10"/>
    </vehicle>
    <vehicle id="23" depart="23.00">
        <route edges="-27398066#5 24335482#1 30831679 162931971#0 162931971#1 24203847 133781793#0 -112408726#2 -112408726#1 -112408726#0 27054294 84733318 84733258 84733311 84733307"/>
    </vehicle>
    <vehicle id="24" depart="24.00">
        <route edges="84654235#1 84654235#2 27400637#0 133781730#2 133781730#3 133781730#4 84733289 84733284#0 84733284#1 84733309#0 84733275#2 91181765#0 91181765#1 91181762 133781796#0 133781796#1 -162931971#1 -162931971#0 100400947#13 100400947#14 254396716#0 254396716#1 254396716#2 254396716#3 262933359#0 262933359#1 262933359#2 -225516700#1 -225516700#0 -224384017#2 224384017#2"/>
    </vehicle>
    <vehicle id="25" depart="25.00">
        <route edges="54354579 91181763#3 224200969#0 224200969#1 224200969#2 30831490#0 30831490#1 30831490#2 225806029#4 225806029#5 225806029#6 225806029#7 225806029#8 225806029#9 100400947#8 100400947#9"/>
    </vehicle>
    <vehicle id="27" depart="27.00">
        <route edges="-8920521#2 -8920521#1 -8920521#0 25448810 25448808#1 25448746#6 25448746#7 25448746#8 25448746#9 25448780#0 25448783#0 -117020659 -25448787 224384030#0 224384030#1 224384030#2 224199019#0 8921291 -8921291"/>
    </vehicle>
    <vehicle id="28" depart="28.00">
        <route edges="-225516710 -224941795#2 -224941795#1 -224941795#0 224941795#0"/>
    </vehicle>
    <vehicle id="29" depart="29.00">
        <route edges="-8920519#2 254759915#3 254759914 254396707#0 254396707#1 -162931971#1 -162931971#0 -30831679 -142961038#4 -142961038#3 224200965#3 224200965#4 224200965#5"/>
    </vehicle>
    <vehicle id="30" depart="30.00">
        <route edges="-148902178#1 148902178#1 148902178#2 148902178#3 85562509#2 85562509#3 225516700#0 225516700#1 24335480#7 24335480#8 24335480#9 24335480#10"/>
    </vehicle>
    <vehicle id="32" depart="32.00">
        <route edges="254758120#5 225806029#1 225806029#2 225806029#3 225806029#4 225806029#5 225806029#6 225806029#7 254396707#8 254396707#9 254396707#10 254396707#11 254396707#12"/>
    </vehicle>
    <vehicle id="33" depart="33.00">
        <route edges="27398066#2 -224200965#3 -142961038#2 -142961038#1 -142961038#0 225806029#11 225806029#12 225806029#13 225806029#14 225806029#15 225806029#16"/>
    </vehicle>
    <vehicle id="34" depart="34.00">
        <route edges="142961038#5 -142961038#5 30831679 162931971#0 162931971#1 24203847 133781793#0 133781793#1 84733294#0 84733294#1 84733294#2 84733294#3 84733271#0 84733271#1 84733271#2 84733271#3 84733271#4"/>
    </vehicle>
    <vehicle id="35" depart="35.00">
        <route edges="224199010#1 224199010#2 262933359#1 262933359#2 -225516700#1"/>
    </vehicle>
    <vehicle id="36" depart="36.00">
        <route edges="254759908 254759913 254759915#0 254759915#1 254759915#2 254759915#3 254759914 254396707#0 254396707#1 -162931971#1 -162931971#0 -30831679 -24335482#1 -24335482#0 -225516725 -225516724 -24335481#1 -24335481#0 -85644941#5 -85644941#4 224200965#8 -85644919#3"/>
    </vehicle>
    <vehicle id="37" depart="37.00">
        <route edges="254396707#7 225806029#8 225806029#9 100400947#8 100400947#9 100400947#10 100400947#11 100400947#12 100400947#13 100400947#14 254396716#0 254396716#1 254396716#2 254396716#3 262933359#0 224199010#3 263108751#0 263108751#1 263108751#2 8919163#5 -224199017#6"/>
    </vehicle>
    <vehicle id="38" depart="38.00">
        <route edges="-8915071#0 8915071#0 8915071#1 8917431#1 24603666#1 24603666#2 84733275#0 84733275#1 84733275#2 91181765#0 91181765#1 91181762 224200972#2 30832342#0 30832342#1"/>
    </vehicle>
    <vehicle id="39" depart="39.00">
        <route edges="100400947#0 100400947#1 100400947#2 100400947#3 100400947#4 100400947#5 100400947#6 100400947#7 100400947#8 27398071#0 27398071#1 27398071#2 27398071#3 254306573#0 -224200969#2 -224200969#1 212214152"/>
    </vehicle>
    <vehicle id="40" depart="40.00">
        <route edges="16760568 -16760633#0 25448907#1 -27398066#1 -12247497#5 142961038#2 142961038#3 142961038#4 142961038#5 142961038#6 254396708 224199010#0 224199010#1 224199010#2 262933359#1 262933359#2 -225516700#1 -225516700#0 225516700#0"/>
    </vehicle>
    <vehicle id="41" depart="41.00">
        <route edges="254759915#3 -224199020#2 -224199020#1 254396716#1 254396716#2 254396716#3 254396716#4 262933356#0 262933356#1 -27054290#3 29481846#3"/>
    </vehicle>
    <vehicle id="42" depart="42.00">
        <route edges="47109077#1 12247497#3 100400947#10 100400947#11 100400947#12 162931971#0 162931971#1 24203847 133781793#0 133781793#1 84733294#0 84733294#1 84733294#2 84733294#3 84733294#4 84733294#5 24603666#0"/>
    </vehicle>
    <vehicle id="43" depart="43.00">
        <route edges="-224200965#6 -224200965#5 -224200965#4 -224200965#3 -224200965#2 -224200965#1 -224200965#0 -224200966#1 -224200966#0 -84733303 -84733289 -133781730#4 -133781730#3 -133781730#2 -133781730#1 133781730#1"/>
    </vehicle>
    <vehicle id="44" depart="44.00">
        <route edges="-8922564#4 -8922564#3 -8922564#2 -8922564#1 -8922564#0 8922564#0"/>
    </vehicle>
    <vehicle id="45" depart="45.00">
        <route edges="24335484#6 -254759909#6 -254759909#5 -254759909#4 -254759909#3 -254759909#2"/>
    </vehicle>
    <vehicle id="46" depart="46.00">
        <route edges="-142961038#3 142961038#3 142961038#4 30831679 162931971#0 162931971#1 24203847 133781793#0 133781793#1 84733294#0 84733294#1 84733294#2 84733294#3 84733294#4 84733294#5 24603666#0"/>
    </vehicle>
    <vehicle id="47" depart="47.00">
        <route edges="24335484#7 -24335484#7 -24335484#6 -24335484#5 85562509#3 225516700#0 225516700#1 8919288#0 8919288#1 -224199010#3 -224199010#2 -224199010#1 -224199010#0 -254396708 -142961038#6 -142961038#5 -142961038#4 -142961038#3 -142961038#2 12247497#5 -32965234#1 -32965234#0"/>
    </vehicle>
    <vehicle id="48" depart="48.00">
        <route edges="-24335484#7 -24335484#6 -24335484#5 85562509#3 225516700#0 225516700#1 -24335480#6 -24335480#5 -8920519#6"/>
    </vehicle>
    <vehicle id="49" depart="49.00">
        <route edges="-27054290#2 84733302#2 254759915#2 254759915#3 254759914 254396707#0 254396707#1 -162931971#1 -162931971#0 -30831679 -24335482#1 -24335482#0 -225516725 -225516724 -24335481#1 -24335481#0 -85644941#5 -85644941#4 224200965#8"/>
    </vehicle>
    <vehicle id="50" depart="50.00">
        <route edges="-85644941#4 85644941#4 85644941#5 24335481#0 24335481#1 225516710 224316519 -25448746#10 -25448746#9 25448777#0 25448777#1 -25448772#1 -25448772#0"/>
    </vehicle>
    <vehicle id="51" depart="51.00">
        <route edges="224384017#0 25448810 25448808#1 25448746#6 25448746#7 25448746#8 25448777#0 -25448777#0"/>
    </vehicle>
    <vehicle id="52" depart="52.00">
        <route edges="224316516#1 -224316516#1 112408726#2 112408726#3 91181762 133781796#0 35976977 254396707#3 254396707#4 254396707#5 254396707#6 254396707#7 225806029#8 225806029#9 225806029#10 225806029#11 225806029#12 -27054207#0 -85562549#5 32965287#0 -25448919#2"/>
    </vehicle>
    <vehicle id="53" depart="53.00">
        <route edges="-263108751#2 -263108751#1 -263108751#0 8919288#2 262933356#0 254759915#0 254759915#1 254759915#2 254759915#3 254759914 254396707#0 254396707#1 24203847 133781793#0 133781793#1 84733294#0 84733294#1 84733294#2 84733294#3 84733294#4 -8917431#2 -8917431#1 -8915071#1 -8915071#0"/>
    </vehicle>
    <vehicle id="54" depart="54.00">
        <route edges="-117020466#0 117020466#0 -25448814#1 -25448814#0 -25448746#6 -25448808#1 -25448810 224384017#1 84733302#10 24335484#4"/>
    </vehicle>
    <vehicle id="55" depart="55.00">
        <route edges="-112408726#1 112408726#1 112408726#2 112408726#3 91181762 -224200972#1 -224200972#0 224200972#0"/>
    </vehicle>
    <vehicle id="56" depart="56.00">
        <route edges="8917284#0 8917284#1 8917284#2 8917284#3 8917284#4 8917284#5 29481846#2 29481846#3 29481846#4 262933359#0 262933359#1 262933359#2 -24335480#6 84733302#7 25448764#0 25448764#1 -25448764#1"/>
    </vehicle>
    <vehicle id="57" depart="57.00">
        <route edges="-8919173#9 -225516711#1 -225516711#0 225516700#0 225516700#1 8919288#0 8919288#1 -224199010#3 -224199010#2 -224199010#1 -224199010#0 -254396708 -225516703#2 -225516703#1 -225516703#0"/>
    </vehicle>
    <vehicle id="58" depart="58.00">
        <route edges="-224199010#0 -254396708 254396711 254396713#0 254396713#1 254396707#0 254396707#1 24203847 133781793#0 133781793#1 84733294#0 84733309#2 8919251"/>
    </vehicle>
    <vehicle id="59" depart="59.00">
        <route edges="107288565#1 254466689 23880800 -254466690 -224316516#1 112408726#2 112408726#3 91181762 133781796#0 133781796#1 -162931971#1 -162931971#0 -30831679 -24335482#1 -24335482#0 24335482#0"/>
    </vehicle>
    <vehicle id="60" depart="60.00">
        <route edges="224200965#8 -224200965#8 -224200965#7 -224200965#6 -224200965#5 -224200965#4 -224200965#3 -142961038#2 -142961038#1 27398072 27398071#0 27398071#1"/>
    </vehicle>
    <vehicle id="61" depart="61.00">
        <route edges="47109077#1 12247497#3 100400947#10 100400947#11 100400947#12 162931971#0 162931971#1 24203847 133781793#0 133781793#1 84733294#0 84733294#1 23873979#1 23873979#2 254453308#0 254453308#1 -84733265 -8915492 8917403#3"/>
    </vehicle>
    <vehicle id="62" depart="62.00">
        <route edges="85644941#3 85644941#4 85644941#5 24335484#0 24335484#1 24335484#2 24335484#3 24335484#4 -24335484#4"/>
    </vehicle>
    <vehicle id="63" depart="63.00">
        <route edges="27398072 100400947#9 100400947#10 100400947#11 100400947#12 100400947#13 100400947#14 254396716#0 254396716#1 254396716#2 254396716#3 262933359#0 224199010#3 263108751#0 263108751#1 8919173#5 224199017#6"/>
    </vehicle>
    <vehicle id="64" depart="64.00">
        <route edges="-24335480#10 -8919163#6 -8919163#5 -263108751#2 -263108751#1 -263108751#0 8919288#2 262933356#0 254759915#0 254759915#1 254759915#2 254759915#3 254759914 254396712 224316516#0 -224316516#0"/>
    </vehicle>
    <vehicle id="65" depart="65.00">
        <route edges="85562509#0 85562509#1 85562509#2 -24335484#4 -24335484#3 -24335484#2 -24335484#1 -148902179#0"/>
    </vehicle>
    <vehicle id="67" depart="67.00">
        <route edges="84733307 254466689 23880800 -254466690 -224316516#1 -224316516#0 -254396712 -254396713#1 -254396713#0 254396716#0 254396716#1 254396716#2 84733302#4 84733302#5 84733302#6 84733302#7 84733302#8 25448746#0 25448746#1 25448746#2 -25448746#2"/>
    </vehicle>
    <vehicle id="69" depart="69.00">
        <route edges="-265059753#1 32965234#1 -12247497#5 -142961038#1 27398072 27398071#0 27398071#1 27398071#2 27398071#3 254306573#0 -224200969#2 -224200969#1"/>
    </vehicle>
    <vehicle id="70" depart="70.00">
        <route edges="-85644919#8 85562509#1 85562509#2 85562509#3 225516700#0 225516700#1 8919288#0 8919288#1 8919288#2 254396716#5 254759909#1"/>
    </vehicle>
    <vehicle id="71" depart="71.00">
        <route edges="-24335480#4 -24335480#3 225516703#1 -225516703#1"/>
    </vehicle>
    <vehicle id="72" depart="72.00">
        <route edges="-12437582#9 -12437582#8 85644941#5 24335481#0 24335481#1 225516710 224316519 224384017#0 224384017#1 84733302#10"/>
    </vehicle>
    <vehicle id="73" depart="73.00">
        <route edges="-224200965#2 224200965#2 -142961038#2 -142961038#1 -142961038#0 225806029#11 225806029#12 225806029#13 225806029#14 225806029#15 85644941#1 85562549#2"/>
    </vehicle>
    <vehicle id="74" depart="74.00">
        <route edges="-8920521#3 85644919#6 85644919#7 85562509#1 85562509#2 85562509#3 225516700#0 225516700#1 8919288#0 8919288#1 8919288#2 262933356#0 254759915#0 254759915#1 254759915#2 254759915#3 -224199020#2"/>
    </vehicle>
    <vehicle id="76" depart="76.00">
        <route edges="8919163#5 -8919163#5 -263108751#2 -263108751#1 -263108751#0 8919288#2 262933356#0 254759915#0 254759915#1 254759915#2 254759915#3 254759914 254396707#0 254396707#1 254396707#2 254396707#3 254396707#4 224200965#1"/>
    </vehicle>
    <vehicle id="77" depart="77.00">
        <route edges="-25448769#2 25448819#2 25448819#3 -8920519#6 -8920519#5 -8920519#4 -224199010#0 -254396708 254396711 254396713#0 254396713#1 254396707#0 254396707#1 254396707#2 254396707#3 12437582#1"/>
    </vehicle>
    <vehicle id="78" depart="78.00">
        <route edges="-27054293 -254759958 -224199020#2 -224199020#1 254396716#1 254396716#2 254396716#3 262933359#0 262933359#1 262933359#2 -225516700#1 -225516700#0 -85562509#3 -24335484#4 -24335484#3"/>
    </vehicle>
    <vehicle id="79" depart="79.00">
        <route edges="32965204#0 32965204#1 -47108401#2 -47108401#1 -47108401#0 30035688#0 225806029#14 225806029#15 225806029#16 225806029#17"/>
    </vehicle>
    <vehicle id="80" depart="80.00">
        <route edges="-12437582#9 -12437582#8 85644941#5 24335481#0 24335481#1 225516724 225516725 24335482#0 24335482#1 30831679 162931971#0 162931971#1 254396707#2 254396707#3 254396707#4 254396707#5 254396707#6 27398071#2 27398071#3 254306573#0 30831490#0"/>
    </vehicle>
    <vehicle id="82" depart="82.00">
        <route edges="47108401#3 -224200965#5 -224200965#4 -224200965#3 142961038#3 142961038#4 30831679 100400947#13 100400947#14 254396716#0 254396716#1 254396716#2 254396716#3 254396716#4 254396716#5 254396716#6 254396716#7 8919163#4"/>
    </vehicle>
    <vehicle id="83" depart="83.00">
        <route edges="-142961038#5 -24335482#1 -24335482#0 -225516725 -225516724 -24335481#1 -24335481#0 -85644941#5 12437582#8 -12437582#8"/>
    </vehicle>
    <vehicle id="84" depart="84.00">
        <route edges="24335484#5 -24335484#5 85562509#3 225516700#0 225516700#1 8919288#0 8919288#1 8919288#2 262933356#0 254759915#0 254759915#1 254759915#2 254759915#3 254759914 254396707#0 254396707#1 24203847 133781793#0 112408726#3 91181763#0 91181763#1 91181763#2 91181763#3 224200969#0 224200969#1 36948490"/>
    </vehicle>
    <vehicle id="85" depart="85.00">
        <route edges="254756525#5 254756525#6 254756525#7 254756525#8 254756525#9 26944132 27398072 27398071#0 27398071#1 27398071#2 27398071#3 254306573#0 -224200969#2 -224200969#1 -224200969#0 -84733303 -84733289 -133781730#4 -133781730#3 8917893#0 8915074#0 8915075#0 -8915075#0"/>
    </vehicle>
    <vehicle id="86" depart="86.00">
        <route edges="31148684#2 254759908 254759913 254759915#0 254759915#1 254759915#2 254759915#3 254759914 254396707#0 254396707#1 254396707#2 254396707#3 254396707#4 254396707#5 254396707#6 254396707#7 225806029#8 225806029#9 225806029#10 225806029#11 225806029#12"/>
    </vehicle>
    <vehicle id="88" depart="88.00">
        <route edges="-27054290#7 8919163#2 8917523#1 8917523#2 254759913 254759915#0 29481846#4 262933359#0 262933359#1 262933359#2 -225516700#1 -8922564#0"/>
    </vehicle>
    <vehicle id="89" depart="89.00">
        <route edges="-142961038#0 142961038#0 27398072 100400947#9 100400947#10 100400947#11 100400947#12 162931971#0 162931971#1 24203847 133781793#0 133781793#1 84733294#0 84733294#1 84733294#2 84733294#3 84733294#4 -8917431#2 24603666#1"/>
    </vehicle>
    <vehicle id="90" depart="90.00">
        <route edges="-8921291 -224199019#0 -224384030#2 -224384030#1 -224384030#0 -224384029 224384017#0 8920521#0 8920521#1 8920521#2 85644919#6"/>
    </vehicle>
    <vehicle id="91" depart="91.00">
        <route edges="8917284#2 8917284#3 8917284#4 8917284#5 29481846#2 29481846#3 29481846#4 262933359#0 262933359#1 262933359#2 -225516700#1 -225516700#0 -85562509#3 -85562509#2 -85562509#1 85644919#8 -30831509"/>
    </vehicle>
    <vehicle id="92" depart="92.00">
        <route edges="8920149 30831490#2 225806029#4 225806029#5 225806029#6 225806029#7 225806029#8 225806029#9 225806029#10 225806029#11 225806029#12 225806029#13 225806029#14 224384016#1 30832455 -30832455"/>
    </vehicle>
    <vehicle id="93" depart="93.00">
        <route edges="85644919#8 -85644919#8 85562509#1 85562509#2 85562509#3 225516700#0 225516700#1 8919288#0 8919288#1 -224199010#3 -224199010#2 -224199010#1 -224199010#0 -254396708 -142961038#6 -142961038#5 -142961038#4 -142961038#3 -142961038#2 -142961038#1 27398072 27398071#0"/>
    </vehicle>
    <vehicle id="94" depart="94.00">
        <route edges="-84733263#1 84733262 -8917431#2 24603666#1 24603666#2 84733275#0 84733275#1 84733275#2 91181765#0 91181765#1 91181762 133781796#0 35976977 254396707#3 254396707#4 254396707#5 254396707#6 254396707#7 225806029#8 225806029#9 225806029#10 225806029#11 225806029#12 -27054207#0 -85562549#5 32965287#0"/>
    </vehicle>
    <vehicle id="95" depart="95.00">
        <route edges="-224200969#2 -224200969#1 -224200969#0 -91181763#3 -91181763#2 -91181763#1 -91181763#0 91181762 133781796#0 133781796#1 -162931971#1 -162931971#0 100400947#13 100400947#14 254396716#0 254396716#1 254396716#2 254396716#3 262933359#0 262933359#1 262933359#2 -225516700#1 -225516700#0 -224384017#2"/>
    </vehicle>
    <vehicle id="96" depart="96.00">
        <route edges="84654229 84733284#0 84733284#1 84733309#0 84733275#2 91181765#0 91181765#1 -112408726#3 -112408726#2 -112408726#1 -112408726#0 -8917284#8 -8917284#7 -8917284#6 -8917284#5 -8917284#4 -8917284#3 -8917284#2"/>
    </vehicle>
    <vehicle id="97" depart="97.00">
        <route edges="-224384017#0 -224316519 -225516710 -24335481#1 -24335481#0 -85644941#5 -85644941#4 -85644941#3 -85644941#2 85562549#2"/>
    </vehicle>
    <vehicle id="98" depart="98.00">
        <route edges="224200965#1 224200965#2 224200965#3 224200965#4 224200965#5 224200965#6 224200965#7 224200965#8"/>
    </vehicle>
    <vehicle id="99" depart="99.00">
        <route edges="254759958 -254759958 254759914 254396707#0 254396707#1 -162931971#1 -162931971#0 -30831679 -24335482#1 -24335482#0 -225516725 -225516724 -24335481#1 -24335481#0"/>
    </vehicle>
    <vehicle id="100" depart="100.00">
        <route edges="-46272776 46272776 24335482#0 24335482#1 -142961038#4 -142961038#3 -224200965#2 224200965#2"/>
    </vehicle>
    <vehicle id="102" depart="102.00">
        <route edges="8919246#1 8919246#2 84654229 84733284#0 84733284#1 84733309#0 84733275#2 91181765#0 91181765#1 91181762 133781796#0 133781796#1 -162931971#1 -162931971#0 100400947#13 100400947#14 -254396711 -225516703#2 -225516703#1 -225516703#0 -224316517 -148902179#1 24335484#1 24335484#2"/>
    </vehicle>
    <vehicle id="104" depart="104.00">
        <route edges="25448748 25448746#4 25448808#0 -25448810 8920521#0 -24335484#2"/>
    </vehicle>
    <vehicle id="105" depart="105.00">
        <route edges="225516710 -225516710 -24335481#1 -24335481#0 -85644941#5 -85644941#4 -85644941#3 224941796#1 -224941796#1"/>
    </vehicle>
    <vehicle id="106" depart="106.00">
        <route edges="224199017#0 -8920519#5 -8920519#4 -224199010#0 -254396708 -142961038#6 -142961038#5 -142961038#4 12437582#3 12437582#4 12437582#5"/>
    </vehicle>
    <vehicle id="107" depart="107.00">
        <route edges="225516725 24335482#0 24335482#1 142961038#5 142961038#6 254396708 224199010#0 224199010#1 224199010#2 262933359#1 262933359#2 -225516700#1 -225516700#0 225516711#0 -225516711#0"/>
    </vehicle>
    <vehicle id="108" depart="108.00">
        <route edges="8921291 -8920519#4 -224199010#0 -254396708 -142961038#6 -142961038#5 -142961038#4 -142961038#3 224200965#3 224200965#4 224200965#5 -47108401#3 47108401#3"/>
    </vehicle>
    <vehicle id="109" depart="109.00">
        <route edges="8917523#2 254759913 254759915#0 254759915#1 254759915#2 254759915#3 254759914 254396712 224316516#0 224316516#1 254466690 -23880800 -254466689 -107288565#1 -107288565#0"/>
    </vehicle>
    <vehicle id="110" depart="110.00">
        <route edges="-85644941#2 85562549#2 85562549#3 85562549#4 85562549#5 224199016 26944132 27398072 100400947#9 100400947#10 100400947#11 100400947#12 162931971#0 162931971#1 24203847 133781793#0 -112408726#2 -112408726#1 -112408726#0 -8917284#8 -8917284#7 8917284#7"/>
    </vehicle>
    <vehicle id="111" depart="111.00">
        <route edges="8919163#4 -263108751#2 -263108751#1 -263108751#0 8919288#2 262933356#0 254759915#0 254759915#1 254759915#2 254759915#3 254759914 254396707#0 254396707#1 24203847 133781793#0 133781793#1 84733294#0 84733294#1 23873979#1 23873979#2 254453308#0 254453308#1 254453308#2 254453308#3 254453308#4 84733260#0 84733260#1 8915750#0 -47108845"/>
    </vehicle>
    <vehicle id="112" depart="112.00">
        <route edges="117020466#2 25448773 -25448746#1 -25448746#0 8922564#0 225516700#1 8919288#0 224199017#4"/>
    </vehicle>
    <vehicle id="114" depart="114.00">
        <route edges="24335484#8 -24335484#8 -24335484#7 -24335484#6 -24335484#5 -85562509#2 -85562509#1 -85644919#7 -85644919#6 -85644919#5 -85644919#4 85644919#4"/>
    </vehicle>
    <vehicle id="115" depart="115.00">
        <route edges="254759909#0 -254759909#0 254759913 254759915#0 254759915#1 254759915#2 254759915#3 254759914 254396707#0 254396707#1 24203847 133781793#0 133781793#1 84733294#0 84733294#1 23873979#1 23873979#2 254453308#0 254453308#1 254453308#2 254453308#3 254453308#4 84733260#0 84733260#1"/>
    </vehicle>
    <vehicle id="116" depart="116.00">
        <route edges="85562509#2 85562509#3 225516700#0 225516700#1 8919288#0 8919288#1 8919288#2 262933356#0 254759915#0 254759915#1 254759915#2 254759915#3 254759914 254396707#0 254396707#1 24203847 133781793#0 133781793#1 84733294#0 84733294#1 23873979#1 23873979#2 254453308#0 254453308#1 254453308#2 254453308#3 254453308#4 84733260#0 84733260#1 84654235#1 84654235#2 27400637#0"/>
    </vehicle>
    <vehicle id="117" depart="117.00">
        <route edges="85644941#3 85644941#4 85644941#5 24335481#0 24335481#1 225516724 -225516724"/>
    </vehicle>
    <vehicle id="118" depart="118.00">
        <route edges="31148684#2 254759908 254759913 254759915#0 254759915#1 254759915#2 254759915#3 254759914 254396707#0 254396707#1 24203847 133781793#0 133781793#1 84733294#0 84733294#1 84733294#2 84733294#3 84733271#0 -84733263#1"/>
    </vehicle>
    <vehicle id="119" depart="119.00">
        <route edges="112408726#2 -112408726#2 -112408726#1 -112408726#0 -8917284#8"/>
    </vehicle>
    <vehicle id="120" depart="120.00">
        <route edges="91181765#1 91181762 133781796#0 133781796#1 -162931971#1 -162931971#0 -30831679 -142961038#4 12437582#3 12437582#4 -12437582#4"/>
    </vehicle>
    <vehicle id="121" depart="121.00">
        <route edges="-84733291 -84733311 -84733258 -84733318 -27054294 112408726#0 112408726#1 112408726#2 112408726#3 91181762 133781796#0 133781796#1 -162931971#1 -162931971#0 -30831679 -142961038#4 -142961038#3 224200965#3 224200965#4 -224200965#4"/>
    </vehicle>
    <vehicle id="122" depart="122.00">
        <route edges="-148902178#1 -8920521#1 -24335484#2 -24335484#1 148902179#1 224316517 225516703#0 225516703#1 225516703#2 254396711 254396713#0 254396713#1 254396707#0 254396707#1 24203847 133781793#0 133781793#1 84733294#0 84733294#1 84733294#2 84733294#3 84733294#4 -8917431#2 -8917431#1 -8917431#0 -8917893#4 -215919657 -8919826#0 -8917893#1 8915074#0 8915075#0 8915075#1 -8915075#1"/>
    </vehicle>
    <vehicle id="123" depart="123.00">
        <route edges="-27054290#5 254759908 254759909#0 254759909#1 263108751#1 263108751#2 8919163#5 8919163#6 8919163#7 8922564#4"/>
    </vehicle>
    <vehicle id="124" depart="124.00">
        <route edges="254756525#5 254756525#6 254756525#7 254756525#8 254756525#9 26944132 142961038#1 142961038#2 142961038#3 142961038#4 142961038#5 142961038#6 254396708 224199010#0"/>
    </vehicle>
    <vehicle id="125" depart="125.00">