<?xml version="1.0"?>

<routes>
   <vTypeDistribution id="typedist1">
        <vType id="type1" accel="0.8" length="5" maxSpeed="50" probability="0.9"/>
        <vType id="type2" accel="1.8" length="15" maxSpeed="50" probability="0.1"/>
    </vTypeDistribution>
    <routeDistribution id="routedist1">
        <route id="route0" color="1,1,0" edges="192552507#4" probability="0.0"/>
        <route id="route1" color="1,2,0" edges="223916565#1 223916565#2 223916565#3 223916565#4 " probability="0.0"/>
        <route id="route2" color="1,3,0" edges="8922045#16 8922045#17 8920625#1 8920625#2" probability="1"/>
    </routeDistribution>
	<vehicle id="0" type="typedist1" route="routedist1" depart="0" color="1,0,0"/>
	<flow id="type1" color="1,1,0"  begin="0" period="100" type="type1" number="50">
    	<route edges="-254759959#5 8922045#13 8922045#14 8922045#15 8922045#16 8922045#17 8920625#1 8920625#2 -225518511#4 -225518511#3 -225518511#2 -8919034#3 -8919034#2 -8920704#13 -254759959#5"/>
	</flow>
</routes>