<?xml version="1.0" encoding="UTF-8"?>

<!-- generated on Thu Apr 10 22:51:54 2014 by SUMO netconvert Version dev-SVN-r15797
<?xml version="1.0" encoding="UTF-8"?>

<configuration xmlns:xsi="http://www.w3.org/2001/XMLSchema-instance" xsi:noNamespaceSchemaLocation="http://sumo-sim.org/xsd/netconvertConfiguration.xsd">

    <input>
        <osm-files value="SanFrancisco3.osm"/>
    </input>

    <output>
        <output-file value="SanFrancisco4.net.xml"/>
    </output>

    <projection>
        <proj.utm value="true"/>
    </projection>

</configuration>
-->

<net version="0.13" xmlns:xsi="http://www.w3.org/2001/XMLSchema-instance" xsi:noNamespaceSchemaLocation="http://sumo-sim.org/xsd/net_file.xsd">

    <location netOffset="-547600.42,-4181171.13" convBoundary="0.00,0.00,5109.75,2725.69" origBoundary="-122.459389,37.776502,-122.401312,37.801053" projParameter="+proj=utm +zone=10 +ellps=WGS84 +datum=WGS84 +units=m +no_defs"/>

    <edge id=":1127285746_0" function="internal">
        <lane id=":1127285746_0_0" index="0" allow="delivery" speed="9.72" length="0.10" shape="2680.18,1075.55 2680.17,1075.55"/>
    </edge>
    <edge id=":1127285746_1" function="internal">
        <lane id=":1127285746_1_0" index="0" speed="13.89" length="2.41" shape="2680.18,1075.55 2679.09,1074.55 2678.80,1073.67"/>
    </edge>
    <edge id=":1127285746_4" function="internal">
        <lane id=":1127285746_4_0" index="0" speed="13.89" length="2.41" shape="2678.80,1073.67 2679.34,1072.92 2680.69,1072.29"/>
    </edge>
    <edge id=":1127285746_2" function="internal">
        <lane id=":1127285746_2_0" index="0" speed="9.72" length="0.10" shape="2680.70,1072.29 2680.69,1072.29"/>
    </edge>
    <edge id=":1127285746_3" function="internal">
        <lane id=":1127285746_3_0" index="0" allow="delivery" speed="5.56" length="2.41" shape="2680.70,1072.29 2681.79,1073.31 2682.07,1074.19"/>
    </edge>
    <edge id=":1127285746_5" function="internal">
        <lane id=":1127285746_5_0" index="0" speed="5.56" length="2.41" shape="2682.07,1074.19 2681.53,1074.94 2680.17,1075.55"/>
    </edge>
    <edge id=":1250121926_0" function="internal">
        <lane id=":1250121926_0_0" index="0" speed="13.89" length="9.51" shape="2939.33,1704.30 2937.68,1713.67"/>
    </edge>
    <edge id=":1250121926_1" function="internal">
        <lane id=":1250121926_1_0" index="0" allow="pedestrian" speed="11.11" length="7.02" shape="2939.33,1704.30 2938.46,1706.88 2936.92,1708.62 2935.08,1709.36"/>
    </edge>
    <edge id=":1250121926_2" function="internal">
        <lane id=":1250121926_2_0" index="0" speed="13.89" length="2.41" shape="2939.33,1704.30 2938.30,1705.37 2937.42,1705.64"/>
    </edge>
    <edge id=":1250121926_9" function="internal">
        <lane id=":1250121926_9_0" index="0" speed="11.11" length="3.32" shape="2935.08,1709.36 2934.69,1709.52 2931.79,1709.58"/>
    </edge>
    <edge id=":1250121926_10" function="internal">
        <lane id=":1250121926_10_0" index="0" speed="13.89" length="2.41" shape="2937.42,1705.64 2936.68,1705.09 2936.08,1703.72"/>
    </edge>
    <edge id=":1250121926_3" function="internal">
        <lane id=":1250121926_3_0" index="0" speed="11.11" length="5.28" shape="2932.15,1706.30 2933.68,1706.28 2934.84,1705.85 2935.64,1704.99 2936.08,1703.72"/>
    </edge>
    <edge id=":1250121926_4" function="internal">
        <lane id=":1250121926_4_0" index="0" speed="11.11" length="10.66" shape="2932.15,1706.30 2935.01,1707.04 2936.88,1708.51 2937.77,1710.72 2937.68,1713.67"/>
    </edge>
    <edge id=":1250121926_5" function="internal">
        <lane id=":1250121926_5_0" index="0" allow="pedestrian" speed="8.33" length="4.82" shape="2932.15,1706.30 2933.29,1707.26 2933.61,1708.12 2933.11,1708.90 2931.79,1709.58"/>
    </edge>
    <edge id=":1250121926_6" function="internal">
        <lane id=":1250121926_6_0" index="0" allow="pedestrian" speed="11.11" length="5.08" shape="2934.43,1713.09 2934.47,1711.69 2934.05,1710.64 2933.15,1709.93 2931.79,1709.58"/>
    </edge>
    <edge id=":1250121926_7" function="internal">
        <lane id=":1250121926_7_0" index="0" speed="13.89" length="9.51" shape="2934.43,1713.09 2936.08,1703.72"/>
    </edge>
    <edge id=":1250121926_8" function="internal">
        <lane id=":1250121926_8_0" index="0" speed="13.89" length="2.41" shape="2934.43,1713.09 2935.45,1712.02 2936.34,1711.76"/>
    </edge>
    <edge id=":1250121926_11" function="internal">
        <lane id=":1250121926_11_0" index="0" speed="13.89" length="2.41" shape="2936.34,1711.76 2937.08,1712.30 2937.68,1713.67"/>
    </edge>
    <edge id=":1250121927_0" function="internal">
        <lane id=":1250121927_0_0" index="0" allow="pedestrian" speed="8.33" length="16.39" shape="2759.94,1645.95 2757.34,1649.02 2754.64,1652.35 2752.39,1655.89 2751.12,1659.56"/>
    </edge>
    <edge id=":1250121927_1" function="internal">
        <lane id=":1250121927_1_0" index="0" allow="pedestrian" speed="8.33" length="18.68" shape="2759.94,1645.95 2755.58,1650.80 2751.65,1654.12 2748.14,1655.90 2745.08,1656.15"/>
    </edge>
    <edge id=":1250121927_2" function="internal">
        <lane id=":1250121927_2_0" index="0" allow="pedestrian" speed="8.33" length="22.10" shape="2759.94,1645.95 2754.70,1651.40 2751.40,1652.52 2750.04,1649.31 2750.61,1641.77"/>
    </edge>
    <edge id=":1250121927_3" function="internal">
        <lane id=":1250121927_3_0" index="0" allow="pedestrian" speed="8.33" length="4.82" shape="2759.94,1645.95 2758.52,1646.39 2757.62,1646.18 2757.25,1645.34 2757.39,1643.86"/>
    </edge>
    <edge id=":1250121927_4" function="internal">
        <lane id=":1250121927_4_0" index="0" allow="pedestrian" speed="8.33" length="8.35" shape="2753.85,1642.28 2753.64,1645.13 2754.16,1646.35 2755.41,1645.92 2757.39,1643.86"/>
    </edge>
    <edge id=":1250121927_5" function="internal">
        <lane id=":1250121927_5_0" index="0" allow="pedestrian" speed="8.33" length="17.49" shape="2753.85,1642.28 2753.21,1646.37 2752.49,1650.92 2751.77,1655.47 2751.12,1659.56"/>
    </edge>
    <edge id=":1250121927_6" function="internal">
        <lane id=":1250121927_6_0" index="0" allow="pedestrian" speed="8.33" length="17.99" shape="2753.85,1642.28 2752.42,1648.79 2750.47,1653.27 2748.03,1655.72 2745.08,1656.15"/>
    </edge>
    <edge id=":1250121927_7" function="internal">
        <lane id=":1250121927_7_0" index="0" allow="pedestrian" speed="8.33" length="4.80" shape="2753.85,1642.28 2752.85,1643.37 2751.97,1643.65 2751.23,1643.11 2750.61,1641.77"/>
    </edge>
    <edge id=":1250121927_8" function="internal">
        <lane id=":1250121927_8_0" index="0" allow="pedestrian" speed="8.33" length="12.87" shape="2745.67,1652.91 2747.13,1652.42 2748.44,1650.40 2749.60,1646.85 2750.61,1641.77"/>
    </edge>
    <edge id=":1250121927_9" function="internal">
        <lane id=":1250121927_9_0" index="0" allow="pedestrian" speed="8.33" length="15.22" shape="2745.67,1652.91 2747.82,1652.60 2750.49,1650.99 2753.68,1648.08 2757.39,1643.86"/>
    </edge>
    <edge id=":1250121927_10" function="internal">
        <lane id=":1250121927_10_0" index="0" allow="pedestrian" speed="8.33" length="9.75" shape="2745.67,1652.91 2748.38,1653.75 2750.20,1655.14 2751.11,1657.08 2751.12,1659.56"/>
    </edge>
    <edge id=":1250121927_11" function="internal">
        <lane id=":1250121927_11_0" index="0" allow="pedestrian" speed="8.33" length="4.82" shape="2745.67,1652.91 2746.74,1653.94 2746.99,1654.82 2746.44,1655.56 2745.08,1656.15"/>
    </edge>
    <edge id=":1250121927_12" function="internal">
        <lane id=":1250121927_12_0" index="0" allow="pedestrian" speed="8.33" length="4.93" shape="2747.78,1659.56 2747.78,1658.28 2747.33,1657.29 2746.43,1656.58 2745.08,1656.15"/>
    </edge>
    <edge id=":1250121927_13" function="internal">
        <lane id=":1250121927_13_0" index="0" allow="pedestrian" speed="8.33" length="18.01" shape="2747.78,1659.56 2748.45,1655.39 2749.20,1650.66 2749.95,1645.94 2750.61,1641.77"/>
    </edge>
    <edge id=":1250121927_14" function="internal">
        <lane id=":1250121927_14_0" index="0" allow="pedestrian" speed="8.33" length="18.55" shape="2747.78,1659.56 2749.17,1655.57 2751.70,1651.31 2754.66,1647.26 2757.39,1643.86"/>
    </edge>
    <edge id=":1250121927_15" function="internal">
        <lane id=":1250121927_15_0" index="0" allow="pedestrian" speed="8.33" length="4.88" shape="2747.78,1659.56 2748.62,1658.30 2749.45,1657.89 2750.29,1658.30 2751.12,1659.56"/>
    </edge>
    <edge id=":1250121928_0" function="internal">
        <lane id=":1250121928_0_0" index="0" allow="pedestrian" speed="8.33" length="5.04" shape="2699.65,1647.90 2698.27,1647.85 2697.21,1648.26 2696.48,1649.13 2696.09,1650.46"/>
    </edge>
    <edge id=":1250121928_1" function="internal">
        <lane id=":1250121928_1_0" index="0" allow="pedestrian" speed="8.33" length="10.33" shape="2699.65,1647.90 2696.93,1647.01 2695.12,1645.49 2694.22,1643.35 2694.23,1640.57"/>
    </edge>
    <edge id=":1250121928_2" function="internal">
        <lane id=":1250121928_2_0" index="0" allow="pedestrian" speed="8.33" length="4.82" shape="2699.65,1647.90 2698.58,1646.87 2698.32,1645.99 2698.88,1645.25 2700.24,1644.66"/>
    </edge>
    <edge id=":1250121928_3" function="internal">
        <lane id=":1250121928_3_0" index="0" allow="pedestrian" speed="8.33" length="5.13" shape="2697.49,1641.06 2697.50,1642.42 2697.95,1643.47 2698.87,1644.21 2700.24,1644.66"/>
    </edge>
    <edge id=":1250121928_4" function="internal">
        <lane id=":1250121928_4_0" index="0" allow="pedestrian" speed="8.33" length="9.50" shape="2697.49,1641.06 2696.09,1650.46"/>
    </edge>
    <edge id=":1250121928_5" function="internal">
        <lane id=":1250121928_5_0" index="0" allow="pedestrian" speed="8.33" length="4.82" shape="2697.49,1641.06 2696.49,1642.16 2695.62,1642.45 2694.86,1641.92 2694.23,1640.57"/>
    </edge>
    <edge id=":1250121928_6" function="internal">
        <lane id=":1250121928_6_0" index="0" allow="pedestrian" speed="8.33" length="9.50" shape="2692.82,1649.97 2694.23,1640.57"/>
    </edge>
    <edge id=":1250121928_7" function="internal">
        <lane id=":1250121928_7_0" index="0" allow="pedestrian" speed="8.33" length="10.48" shape="2692.82,1649.97 2693.65,1647.21 2695.16,1645.40 2697.36,1644.55 2700.24,1644.66"/>
    </edge>
    <edge id=":1250121928_8" function="internal">
        <lane id=":1250121928_8_0" index="0" allow="pedestrian" speed="8.33" length="4.82" shape="2692.82,1649.97 2693.82,1648.87 2694.70,1648.58 2695.45,1649.11 2696.09,1650.46"/>
    </edge>
    <edge id=":1318128034_0" function="internal">
        <lane id=":1318128034_0_0" index="0" allow="pedestrian" speed="4.86" length="0.10" shape="2055.51,1571.67 2055.51,1571.68"/>
    </edge>
    <edge id=":1318128034_1" function="internal">
        <lane id=":1318128034_1_0" index="0" allow="pedestrian" speed="8.33" length="2.41" shape="2055.51,1571.67 2054.46,1570.63 2054.21,1569.74"/>
    </edge>
    <edge id=":1318128034_4" function="internal">
        <lane id=":1318128034_4_0" index="0" speed="8.33" length="2.41" shape="2054.21,1569.74 2054.78,1569.01 2056.15,1568.44"/>
    </edge>
    <edge id=":1318128034_2" function="internal">
        <lane id=":1318128034_2_0" index="0" allow="pedestrian" speed="4.86" length="0.10" shape="2056.15,1568.44 2056.15,1568.44"/>
    </edge>
    <edge id=":1318128034_3" function="internal">
        <lane id=":1318128034_3_0" index="0" allow="pedestrian" speed="1.39" length="2.41" shape="2056.15,1568.44 2057.21,1569.49 2057.45,1570.37"/>
    </edge>
    <edge id=":1318128034_5" function="internal">
        <lane id=":1318128034_5_0" index="0" speed="1.39" length="2.41" shape="2057.45,1570.37 2056.89,1571.10 2055.51,1571.68"/>
    </edge>
    <edge id=":1615767019_0" function="internal">
        <lane id=":1615767019_0_0" index="0" allow="pedestrian" speed="18.06" length="5.02" shape="2638.53,928.52 2637.15,928.46 2636.10,928.86 2635.36,929.72 2634.93,931.03"/>
    </edge>
    <edge id=":1615767019_1" function="internal">
        <lane id=":1615767019_1_0" index="0" speed="27.78" length="9.50" shape="2638.53,928.52 2629.18,926.80"/>
        <lane id=":1615767019_1_1" index="1" speed="27.78" length="9.50" shape="2639.13,925.27 2629.78,923.55"/>
    </edge>
    <edge id=":1615767019_3" function="internal">
        <lane id=":1615767019_3_0" index="0" speed="18.06" length="5.05" shape="2631.68,930.47 2631.72,929.08 2631.32,928.00 2630.48,927.24 2629.18,926.80"/>
    </edge>
    <edge id=":1615767019_4" function="internal">
        <lane id=":1615767019_4_0" index="0" allow="pedestrian" speed="8.33" length="4.82" shape="2631.68,930.47 2632.70,929.39 2633.59,929.13 2634.33,929.67 2634.93,931.03"/>
    </edge>
    <edge id=":1615767020_0" function="internal">
        <lane id=":1615767020_0_0" index="0" allow="pedestrian" speed="4.86" length="2.64" shape="2622.57,936.65 2623.29,936.66 2623.85,936.44 2624.23,935.98 2624.45,935.29"/>
    </edge>
    <edge id=":1615767020_1" function="internal">
        <lane id=":1615767020_1_0" index="0" allow="pedestrian" speed="1.39" length="4.82" shape="2622.57,936.65 2621.47,935.65 2621.19,934.77 2621.73,934.02 2623.08,933.39"/>
    </edge>
    <edge id=":1615767020_2" function="internal">
        <lane id=":1615767020_2_0" index="0" allow="pedestrian" speed="4.86" length="2.64" shape="2621.20,934.76 2621.41,934.07 2621.80,933.61 2622.35,933.38 2623.08,933.39"/>
    </edge>
    <edge id=":1615767020_3" function="internal">
        <lane id=":1615767020_3_0" index="0" allow="pedestrian" speed="8.33" length="4.82" shape="2621.20,934.76 2622.21,933.67 2623.09,933.40 2623.84,933.94 2624.45,935.29"/>
    </edge>
    <edge id=":1615767021_0" function="internal">
        <lane id=":1615767021_0_0" index="0" allow="pedestrian" speed="4.86" length="7.82" shape="2634.49,933.62 2633.84,935.66 2632.69,937.01 2631.04,937.67 2628.91,937.64"/>
    </edge>
    <edge id=":1615767021_1" function="internal">
        <lane id=":1615767021_1_0" index="0" allow="pedestrian" speed="8.33" length="4.82" shape="2634.49,933.62 2633.47,934.71 2632.59,934.97 2631.84,934.43 2631.24,933.07"/>
    </edge>
    <edge id=":1615767021_2" function="internal">
        <lane id=":1615767021_2_0" index="0" allow="pedestrian" speed="4.86" length="2.55" shape="2629.41,934.38 2630.11,934.39 2630.65,934.17 2631.02,933.73 2631.24,933.07"/>
    </edge>
    <edge id=":1615767021_3" function="internal">
        <lane id=":1615767021_3_0" index="0" allow="pedestrian" speed="1.39" length="4.82" shape="2629.41,934.38 2630.51,935.39 2630.79,936.26 2630.26,937.02 2628.91,937.64"/>
    </edge>
    <edge id=":1615767022_0" function="internal">
        <lane id=":1615767022_0_0" index="0" allow="pedestrian" speed="8.33" length="0.13" shape="2620.54,939.43 2620.42,939.44"/>
    </edge>
    <edge id=":1615767022_1" function="internal">
        <lane id=":1615767022_1_0" index="0" allow="pedestrian" speed="8.33" length="0.27" shape="2620.54,939.43 2620.50,939.41 2620.47,939.36 2620.46,939.29 2620.47,939.20"/>
    </edge>
    <edge id=":1615767022_2" function="internal">
        <lane id=":1615767022_2_0" index="0" allow="pedestrian" speed="8.33" length="85.45" shape="2620.54,939.43 2640.50,956.67 2645.94,972.09 2636.87,985.69 2613.29,997.49"/>
    </edge>
    <edge id=":1615767022_3" function="internal">
        <lane id=":1615767022_3_0" index="0" allow="pedestrian" speed="8.33" length="58.85" shape="2614.19,997.72 2618.14,972.43 2620.49,954.28 2621.25,943.29 2620.42,939.44"/>
    </edge>
    <edge id=":1615767022_4" function="internal">
        <lane id=":1615767022_4_0" index="0" allow="pedestrian" speed="8.33" length="0.94" shape="2614.19,997.72 2614.14,997.67 2613.97,997.62 2613.69,997.56 2613.29,997.49"/>
    </edge>
    <edge id=":1615767022_5" function="internal">
        <lane id=":1615767022_5_0" index="0" allow="pedestrian" speed="8.33" length="85.95" shape="2614.19,997.72 2593.81,980.73 2588.07,965.32 2596.95,951.47 2620.47,939.20"/>
    </edge>
    <edge id=":1615767022_6" function="internal">
        <lane id=":1615767022_6_0" index="0" allow="pedestrian" speed="8.33" length="3.06" shape="2621.04,936.20 2620.98,936.38 2620.86,936.94 2620.69,937.88 2620.47,939.20"/>
    </edge>
    <edge id=":1615767022_7" function="internal">
        <lane id=":1615767022_7_0" index="0" allow="pedestrian" speed="8.33" length="62.07" shape="2621.04,936.20 2621.22,946.01 2617.16,966.86 2613.11,987.70 2613.29,997.49"/>
    </edge>
    <edge id=":1615767022_8" function="internal">
        <lane id=":1615767022_8_0" index="0" allow="pedestrian" speed="8.33" length="4.82" shape="2621.04,936.20 2622.10,937.24 2622.35,938.13 2621.79,938.86 2620.42,939.44"/>
    </edge>
    <edge id=":1615767037_0" function="internal">
        <lane id=":1615767037_0_0" index="0" allow="pedestrian" speed="8.33" length="2.58" shape="2602.42,1014.11 2601.71,1014.10 2601.17,1014.32 2600.80,1014.76 2600.59,1015.44"/>
    </edge>
    <edge id=":1615767037_1" function="internal">
        <lane id=":1615767037_1_0" index="0" allow="pedestrian" speed="8.33" length="2.41" shape="2602.42,1014.11 2601.33,1013.10 2601.05,1012.22"/>
    </edge>
    <edge id=":1615767037_4" function="internal">
        <lane id=":1615767037_4_0" index="0" speed="8.33" length="2.41" shape="2601.05,1012.22 2601.59,1011.47 2602.94,1010.86"/>
    </edge>
    <edge id=":1615767037_2" function="internal">
        <lane id=":1615767037_2_0" index="0" allow="pedestrian" speed="8.33" length="7.89" shape="2597.33,1014.91 2597.97,1012.85 2599.12,1011.48 2600.78,1010.82 2602.94,1010.86"/>
    </edge>
    <edge id=":1615767037_3" function="internal">
        <lane id=":1615767037_3_0" index="0" allow="pedestrian" speed="8.33" length="2.41" shape="2597.33,1014.91 2598.34,1013.82 2599.22,1013.55"/>
    </edge>
    <edge id=":1615767037_5" function="internal">
        <lane id=":1615767037_5_0" index="0" speed="8.33" length="2.41" shape="2599.22,1013.55 2599.97,1014.09 2600.59,1015.44"/>
    </edge>
    <edge id=":1615767053_0" function="internal">
        <lane id=":1615767053_0_0" index="0" allow="pedestrian" speed="8.33" length="7.91" shape="2587.81,1104.72 2585.74,1104.08 2584.37,1102.93 2583.70,1101.27 2583.74,1099.10"/>
    </edge>
    <edge id=":1615767053_1" function="internal">
        <lane id=":1615767053_1_0" index="0" allow="pedestrian" speed="8.33" length="2.41" shape="2587.81,1104.72 2586.71,1103.71 2586.44,1102.83"/>
    </edge>
    <edge id=":1615767053_4" function="internal">
        <lane id=":1615767053_4_0" index="0" speed="8.33" length="2.41" shape="2586.44,1102.83 2586.98,1102.08 2588.33,1101.46"/>
    </edge>
    <edge id=":1615767053_2" function="internal">
        <lane id=":1615767053_2_0" index="0" allow="pedestrian" speed="8.33" length="2.58" shape="2587.00,1099.63 2586.99,1100.33 2587.20,1100.88 2587.65,1101.25 2588.33,1101.46"/>
    </edge>
    <edge id=":1615767053_3" function="internal">
        <lane id=":1615767053_3_0" index="0" allow="pedestrian" speed="8.33" length="2.41" shape="2587.00,1099.63 2585.99,1100.72 2585.11,1100.99"/>
    </edge>
    <edge id=":1615767053_5" function="internal">
        <lane id=":1615767053_5_0" index="0" speed="8.33" length="2.41" shape="2585.11,1100.99 2584.36,1100.45 2583.74,1099.10"/>
    </edge>
    <edge id=":173266256_0" function="internal">
        <lane id=":173266256_0_0" index="0" allow="pedestrian" speed="8.33" length="10.52" shape="2765.37,1606.10 2763.60,1608.54 2762.77,1610.55 2762.25,1612.74 2761.42,1615.70"/>
    </edge>
    <edge id=":173266256_1" function="internal">
        <lane id=":173266256_1_0" index="0" allow="pedestrian" speed="8.33" length="11.84" shape="2765.37,1606.10 2763.05,1608.32 2760.79,1609.65 2758.27,1610.66 2755.22,1611.90"/>
    </edge>
    <edge id=":173266256_2" function="internal">
        <lane id=":173266256_2_0" index="0" allow="pedestrian" speed="8.33" length="4.82" shape="2765.37,1606.10 2763.94,1606.50 2763.04,1606.28 2762.68,1605.43 2762.86,1603.95"/>
    </edge>
    <edge id=":173266256_3" function="internal">
        <lane id=":173266256_3_0" index="0" allow="pedestrian" speed="8.33" length="10.44" shape="2753.86,1608.89 2756.73,1607.78 2758.85,1607.07 2760.73,1606.04 2762.86,1603.95"/>
    </edge>
    <edge id=":173266256_4" function="internal">
        <lane id=":173266256_4_0" index="0" allow="pedestrian" speed="8.33" length="15.96" shape="2753.86,1608.89 2758.67,1607.35 2761.53,1607.98 2762.45,1610.76 2761.42,1615.70"/>
    </edge>
    <edge id=":173266256_5" function="internal">
        <lane id=":173266256_5_0" index="0" allow="pedestrian" speed="8.33" length="4.82" shape="2753.86,1608.89 2755.33,1609.13 2756.05,1609.71 2756.01,1610.64 2755.22,1611.90"/>
    </edge>
    <edge id=":173266256_6" function="internal">
        <lane id=":173266256_6_0" index="0" allow="pedestrian" speed="8.33" length="6.48" shape="2758.30,1614.67 2758.71,1612.66 2758.34,1611.53 2757.18,1611.27 2755.22,1611.90"/>
    </edge>
    <edge id=":173266256_7" function="internal">
        <lane id=":173266256_7_0" index="0" allow="pedestrian" speed="8.33" length="11.76" shape="2758.30,1614.67 2759.22,1611.52 2759.95,1608.95 2761.00,1606.56 2762.86,1603.95"/>
    </edge>
    <edge id=":173266256_8" function="internal">
        <lane id=":173266256_8_0" index="0" allow="pedestrian" speed="8.33" length="4.81" shape="2758.30,1614.67 2759.47,1613.75 2760.38,1613.62 2761.03,1614.27 2761.42,1615.70"/>
    </edge>
    <edge id=":173266371_0" function="internal">
        <lane id=":173266371_0_0" index="0" allow="pedestrian" speed="8.33" length="8.07" shape="2704.07,1633.67 2701.49,1634.88 2699.60,1636.08 2698.40,1637.27 2697.88,1638.46"/>
    </edge>
    <edge id=":173266371_1" function="internal">
        <lane id=":173266371_1_0" index="0" allow="pedestrian" speed="8.33" length="13.78" shape="2704.07,1633.67 2700.05,1634.74 2697.40,1634.07 2696.11,1631.66 2696.18,1627.51"/>
    </edge>
    <edge id=":173266371_2" function="internal">
        <lane id=":173266371_2_0" index="0" allow="pedestrian" speed="8.33" length="4.82" shape="2704.07,1633.67 2702.61,1633.38 2701.91,1632.78 2701.98,1631.86 2702.81,1630.62"/>
    </edge>
    <edge id=":173266371_3" function="internal">
        <lane id=":173266371_3_0" index="0" allow="pedestrian" speed="8.33" length="5.87" shape="2699.45,1628.00 2699.42,1629.77 2699.97,1630.79 2701.10,1631.08 2702.81,1630.62"/>
    </edge>
    <edge id=":173266371_4" function="internal">
        <lane id=":173266371_4_0" index="0" allow="pedestrian" speed="8.33" length="10.58" shape="2699.45,1628.00 2698.99,1631.02 2698.66,1633.23 2698.33,1635.44 2697.88,1638.46"/>
    </edge>
    <edge id=":173266371_5" function="internal">
        <lane id=":173266371_5_0" index="0" allow="pedestrian" speed="8.33" length="4.82" shape="2699.45,1628.00 2698.45,1629.10 2697.57,1629.38 2696.82,1628.85 2696.18,1627.51"/>
    </edge>
    <edge id=":173266371_6" function="internal">
        <lane id=":173266371_6_0" index="0" allow="pedestrian" speed="8.33" length="10.58" shape="2694.62,1637.98 2695.07,1634.95 2695.40,1632.74 2695.73,1630.53 2696.18,1627.51"/>
    </edge>
    <edge id=":173266371_7" function="internal">
        <lane id=":173266371_7_0" index="0" allow="pedestrian" speed="8.33" length="11.44" shape="2694.62,1637.98 2695.37,1635.93 2696.98,1634.02 2699.46,1632.25 2702.81,1630.62"/>
    </edge>
    <edge id=":173266371_8" function="internal">
        <lane id=":173266371_8_0" index="0" allow="pedestrian" speed="8.33" length="4.82" shape="2694.62,1637.98 2695.62,1636.87 2696.49,1636.59 2697.25,1637.12 2697.88,1638.46"/>
    </edge>
    <edge id=":173266697_0" function="internal">
        <lane id=":173266697_0_0" index="0" allow="pedestrian" speed="8.33" length="5.22" shape="2675.84,1721.63 2671.13,1719.40"/>
    </edge>
    <edge id=":173266697_1" function="internal">
        <lane id=":173266697_1_0" index="0" allow="pedestrian" speed="8.33" length="15.16" shape="2675.84,1721.63 2671.15,1721.15 2668.83,1719.48 2668.88,1716.62 2671.31,1712.57"/>
    </edge>
    <edge id=":173266697_2" function="internal">
        <lane id=":173266697_2_0" index="0" allow="pedestrian" speed="8.33" length="4.82" shape="2675.84,1721.63 2674.59,1720.83 2674.16,1720.01 2674.56,1719.18 2675.78,1718.33"/>
    </edge>
    <edge id=":173266697_3" function="internal">
        <lane id=":173266697_3_0" index="0" allow="pedestrian" speed="8.33" length="6.25" shape="2673.91,1714.59 2672.91,1716.26 2672.89,1717.44 2673.84,1718.13 2675.78,1718.33"/>
    </edge>
    <edge id=":173266697_4" function="internal">
        <lane id=":173266697_4_0" index="0" allow="pedestrian" speed="8.33" length="5.55" shape="2673.91,1714.59 2671.13,1719.40"/>
    </edge>
    <edge id=":173266697_5" function="internal">
        <lane id=":173266697_5_0" index="0" allow="pedestrian" speed="8.33" length="4.81" shape="2673.91,1714.59 2672.50,1715.06 2671.60,1714.88 2671.20,1714.05 2671.31,1712.57"/>
    </edge>
    <edge id=":173266697_6" function="internal">
        <lane id=":173266697_6_0" index="0" allow="pedestrian" speed="8.33" length="4.78" shape="2669.09,1716.80 2671.31,1712.57"/>
    </edge>
    <edge id=":173266697_7" function="internal">
        <lane id=":173266697_7_0" index="0" allow="pedestrian" speed="8.33" length="6.86" shape="2669.09,1716.80 2675.78,1718.33"/>
    </edge>
    <edge id=":173266697_8" function="internal">
        <lane id=":173266697_8_0" index="0" allow="pedestrian" speed="8.33" length="4.82" shape="2669.09,1716.80 2670.57,1716.69 2671.41,1717.08 2671.59,1717.98 2671.13,1719.40"/>
    </edge>
    <edge id=":173266706_0" function="internal">
        <lane id=":173266706_0_0" index="0" allow="pedestrian" speed="8.33" length="18.11" shape="2749.13,1751.71 2747.45,1747.96 2744.45,1744.23 2740.90,1740.84 2737.59,1738.09"/>
    </edge>
    <edge id=":173266706_1" function="internal">
        <lane id=":173266706_1_0" index="0" allow="pedestrian" speed="8.33" length="19.31" shape="2749.13,1751.71 2747.89,1747.48 2746.09,1742.56 2744.29,1737.64 2743.07,1733.39"/>
    </edge>
    <edge id=":173266706_2" function="internal">
        <lane id=":173266706_2_0" index="0" allow="pedestrian" speed="8.33" length="13.52" shape="2749.13,1751.71 2748.74,1747.40 2749.68,1744.58 2751.95,1743.27 2755.54,1743.46"/>
    </edge>
    <edge id=":173266706_3" function="internal">
        <lane id=":173266706_3_0" index="0" allow="pedestrian" speed="8.33" length="5.03" shape="2749.13,1751.71 2749.27,1750.17 2749.82,1749.38 2750.78,1749.35 2752.16,1750.07"/>
    </edge>
    <edge id=":173266706_4" function="internal">
        <lane id=":173266706_4_0" index="0" allow="pedestrian" speed="8.33" length="5.59" shape="2754.83,1746.68 2753.34,1746.60 2752.39,1747.14 2752.00,1748.30 2752.16,1750.07"/>
    </edge>
    <edge id=":173266706_5" function="internal">
        <lane id=":173266706_5_0" index="0" allow="pedestrian" speed="8.33" length="19.36" shape="2754.83,1746.68 2750.63,1745.32 2745.85,1743.14 2741.25,1740.59 2737.59,1738.09"/>
    </edge>
    <edge id=":173266706_6" function="internal">
        <lane id=":173266706_6_0" index="0" allow="pedestrian" speed="8.33" length="18.85" shape="2754.83,1746.68 2750.53,1745.06 2747.13,1742.31 2744.65,1738.42 2743.07,1733.39"/>
    </edge>
    <edge id=":173266706_7" function="internal">
        <lane id=":173266706_7_0" index="0" allow="pedestrian" speed="8.33" length="4.82" shape="2754.83,1746.68 2753.80,1745.61 2753.58,1744.71 2754.16,1744.00 2755.54,1743.46"/>
    </edge>
    <edge id=":173266706_8" function="internal">
        <lane id=":173266706_8_0" index="0" allow="pedestrian" speed="8.33" length="15.02" shape="2746.31,1732.75 2747.57,1736.82 2749.52,1739.96 2752.18,1742.17 2755.54,1743.46"/>
    </edge>
    <edge id=":173266706_9" function="internal">
        <lane id=":173266706_9_0" index="0" allow="pedestrian" speed="8.33" length="18.30" shape="2746.31,1732.75 2747.49,1736.83 2749.22,1741.41 2750.95,1745.99 2752.16,1750.07"/>
    </edge>
    <edge id=":173266706_10" function="internal">
        <lane id=":173266706_10_0" index="0" allow="pedestrian" speed="8.33" length="17.80" shape="2746.31,1732.75 2746.85,1738.53 2745.58,1741.35 2742.49,1741.20 2737.59,1738.09"/>
    </edge>
    <edge id=":173266706_11" function="internal">
        <lane id=":173266706_11_0" index="0" allow="pedestrian" speed="8.33" length="4.82" shape="2746.31,1732.75 2745.74,1734.12 2745.01,1734.69 2744.12,1734.44 2743.07,1733.39"/>
    </edge>
    <edge id=":173266706_12" function="internal">
        <lane id=":173266706_12_0" index="0" allow="pedestrian" speed="8.33" length="7.03" shape="2739.63,1735.50 2741.57,1736.73 2742.79,1736.79 2743.29,1735.68 2743.07,1733.39"/>
    </edge>
    <edge id=":173266706_13" function="internal">
        <lane id=":173266706_13_0" index="0" allow="pedestrian" speed="8.33" length="17.89" shape="2739.63,1735.50 2743.08,1737.90 2747.23,1740.24 2751.55,1742.20 2755.54,1743.46"/>
    </edge>
    <edge id=":173266706_14" function="internal">
        <lane id=":173266706_14_0" index="0" allow="pedestrian" speed="8.33" length="19.46" shape="2739.63,1735.50 2743.10,1738.40 2746.98,1742.11 2750.32,1746.17 2752.16,1750.07"/>
    </edge>
    <edge id=":173266706_15" function="internal">
        <lane id=":173266706_15_0" index="0" allow="pedestrian" speed="8.33" length="4.82" shape="2739.63,1735.50 2740.09,1736.92 2739.90,1737.82 2739.07,1738.21 2737.59,1738.09"/>
    </edge>
    <edge id=":173266928_0" function="internal">
        <lane id=":173266928_0_0" index="0" allow="pedestrian" speed="8.33" length="5.29" shape="2753.49,1666.31 2751.96,1666.35 2750.80,1666.80 2749.99,1667.65 2749.55,1668.91"/>
    </edge>
    <edge id=":173266928_1" function="internal">