<?xml version="1.0" encoding="UTF-8"?>

<!-- generated on Mon Mar 24 01:20:57 2014 by SUMO polyconvert Version dev-SVN-r15797
<?xml version="1.0" encoding="UTF-8"?>

<configuration xmlns:xsi="http://www.w3.org/2001/XMLSchema-instance" xsi:noNamespaceSchemaLocation="http://sumo-sim.org/xsd/polyconvertConfiguration.xsd">

    <input>
        <net-file value="SanFrancisco.net.xml"/>
        <osm-files value="map (1).osm"/>
        <type-file value="typemap.xml"/>
    </input>

    <output>
        <output-file value="SanFrancisco.poly.xml"/>
    </output>

</configuration>
-->

<shapes>
    <poly id="127743260" type="amenity" color="237,199,199" fill="1" layer="2.00" shape="2397.19,1806.39 2417.23,1807.66 2417.10,1809.79 2422.03,1810.10 2422.36,1804.92 2424.09,1805.03 2424.41,1800.16 2422.87,1800.06 2423.32,1792.92 2417.96,1792.57 2417.72,1796.44 2402.80,1795.50 2403.00,1792.18 2398.17,1791.87 2398.08,1792.90 2397.31,1793.40 2397.00,1794.18 2397.22,1795.09 2397.93,1795.76 2397.82,1797.34 2396.53,1797.25 2396.27,1801.38 2397.50,1801.45 2397.19,1806.39"/>
    <poly id="127743260#1" type="building" color="255,230,230" fill="1" layer="2.00" shape="2397.19,1806.39 2417.23,1807.66 2417.10,1809.79 2422.03,1810.10 2422.36,1804.92 2424.09,1805.03 2424.41,1800.16 2422.87,1800.06 2423.32,1792.92 2417.96,1792.57 2417.72,1796.44 2402.80,1795.50 2403.00,1792.18 2398.17,1791.87 2398.08,1792.90 2397.31,1793.40 2397.00,1794.18 2397.22,1795.09 2397.93,1795.76 2397.82,1797.34 2396.53,1797.25 2396.27,1801.38 2397.50,1801.45 2397.19,1806.39"/>
    <poly id="159234617" type="parking" color="184,184,179" fill="1" layer="-2.00" shape="829.70,2458.33 822.11,2450.69 824.30,2423.92 867.10,2427.41 864.33,2459.29 861.08,2459.01 860.96,2460.84 829.70,2458.33"/>
    <poly id="160709337" type="amenity" color="237,199,199" fill="1" layer="2.00" shape="1777.74,1894.76 1767.49,2033.97 1765.76,2036.24 1728.30,2034.97 1694.06,2033.63 1691.91,2031.87 1696.45,1975.96 1667.71,1872.88 1765.51,1882.22 1771.13,1884.54 1774.65,1887.37 1777.35,1890.60 1777.74,1894.76"/>
    <poly id="161502396" type="amenity" color="237,199,199" fill="1" layer="2.00" shape="1247.52,2109.52 1225.58,2107.89 1223.97,2129.21 1214.86,2128.54 1214.16,2137.81 1217.75,2138.07 1217.91,2136.03 1245.38,2138.08 1247.52,2109.52"/>
    <poly id="161502396#1" type="building" color="255,230,230" fill="1" layer="2.00" shape="1247.52,2109.52 1225.58,2107.89 1223.97,2129.21 1214.86,2128.54 1214.16,2137.81 1217.75,2138.07 1217.91,2136.03 1245.38,2138.08 1247.52,2109.52"/>
    <poly id="164787122" type="building" color="255,230,230" fill="1" layer="2.00" shape="1783.94,2506.69 1783.22,2515.81 1782.35,2527.00 1784.32,2527.15 1784.48,2525.16 1790.09,2525.60 1791.53,2507.28 1783.94,2506.69"/>
    <poly id="164787125" type="building" color="255,230,230" fill="1" layer="2.00" shape="1753.24,2514.97 1760.17,2515.50 1762.00,2515.65 1762.06,2514.82 1765.48,2515.08 1765.59,2513.74 1766.14,2513.79 1766.03,2515.17 1781.01,2516.33 1781.11,2515.14 1781.54,2515.17 1781.50,2515.68 1783.22,2515.81 1783.94,2506.69 1782.69,2506.59 1782.76,2505.56 1754.16,2503.34 1753.24,2514.97"/>
    <poly id="173122159" type="building" color="255,230,230" fill="1" layer="2.00" shape="1899.73,2817.99 1900.77,2806.32 1900.79,2806.03 1862.85,2802.81 1861.82,2814.77 1899.73,2817.99"/>
    <poly id="173122160" type="building" color="255,230,230" fill="1" layer="2.00" shape="1858.21,2851.12 1858.16,2851.82 1896.98,2855.12 1898.04,2842.72 1897.63,2842.68 1859.22,2839.43 1858.21,2851.12"/>
    <poly id="173122163" type="building" color="255,230,230" fill="1" layer="2.00" shape="1901.83,2793.80 1903.36,2775.98 1865.41,2772.76 1863.89,2790.58 1901.83,2793.80"/>
    <poly id="173122164" type="building" color="255,230,230" fill="1" layer="2.00" shape="1852.18,2826.62 1838.76,2825.55 1838.93,2823.44 1836.18,2823.23 1836.01,2825.33 1822.50,2824.26 1822.56,2823.62 1821.56,2822.81 1821.72,2819.93 1823.44,2818.99 1823.66,2816.43 1822.99,2815.41 1822.95,2812.77 1824.40,2811.70 1825.40,2811.79 1849.28,2813.68 1853.19,2813.99 1852.18,2826.62"/>
    <poly id="173122165" type="building" color="255,230,230" fill="1" layer="2.00" shape="1907.39,2724.19 1909.51,2696.35 1871.72,2693.49 1869.60,2721.34 1907.39,2724.19"/>
    <poly id="173122167" type="building" color="255,230,230" fill="1" layer="2.00" shape="1860.78,2826.95 1861.82,2814.77 1899.73,2817.99 1898.69,2830.17 1860.78,2826.95"/>
    <poly id="173122168" type="building" color="255,230,230" fill="1" layer="2.00" shape="1900.79,2806.03 1901.83,2793.80 1863.89,2790.58 1862.85,2802.81 1900.79,2806.03"/>
    <poly id="173122170" type="building" color="255,230,230" fill="1" layer="2.00" shape="1906.11,2740.98 1869.49,2738.21 1868.34,2753.16 1882.23,2754.21 1882.14,2755.37 1904.89,2757.08 1906.11,2740.98"/>
    <poly id="173122174" type="building" color="255,230,230" fill="1" layer="2.00" shape="1859.22,2839.43 1860.08,2829.31 1860.29,2826.92 1860.78,2826.95 1898.69,2830.17 1897.63,2842.68 1859.22,2839.43"/>
    <poly id="173122175" type="building" color="255,230,230" fill="1" layer="2.00" shape="1820.71,2847.94 1858.21,2851.12 1859.22,2839.43 1860.08,2829.31 1822.57,2826.13 1820.71,2847.94"/>
    <poly id="173122176" type="building" color="255,230,230" fill="1" layer="2.00" shape="1903.36,2775.98 1904.92,2757.77 1866.97,2754.55 1865.41,2772.76 1903.36,2775.98"/>
    <poly id="173122177" type="building" color="255,230,230" fill="1" layer="2.00" shape="1907.39,2724.19 1906.11,2740.98 1869.49,2738.21 1867.56,2738.07 1868.83,2721.28 1869.60,2721.34 1907.39,2724.19"/>
    <poly id="173122180" type="building" color="255,230,230" fill="1" layer="2.00" shape="1813.60,2945.63 1814.42,2938.73 1817.00,2939.03 1818.98,2922.33 1815.43,2921.91 1816.51,2912.84 1850.69,2916.86 1847.65,2941.60 1846.81,2949.54 1844.08,2949.22 1841.13,2948.87 1821.58,2946.57 1813.60,2945.63"/>
    <poly id="188964531" type="tourism" color="207,245,201" fill="1" layer="-10.00" shape="1620.43,1741.40 1621.73,1741.53 1636.81,1798.16 1636.01,1800.91 1629.38,1803.23 1627.53,1798.04 1625.64,1796.85 1623.28,1796.48 1620.68,1797.29 1619.72,1799.88 1619.34,1802.69 1616.27,1802.56 1620.43,1741.40"/>
    <poly id="191862951" type="building" color="255,230,230" fill="1" layer="2.00" shape="1312.00,2592.63 1312.05,2591.12 1313.39,2590.01 1313.58,2587.42 1312.55,2586.20 1312.56,2584.52 1304.43,2583.97 1304.57,2581.83 1303.86,2581.83 1303.93,2580.34 1298.62,2580.12 1298.51,2582.15 1293.10,2581.74 1292.95,2583.93 1287.88,2583.54 1287.86,2584.96 1283.00,2584.62 1282.62,2589.70 1287.24,2589.89 1297.87,2590.44 1297.87,2591.85 1306.85,2592.50 1306.85,2592.22 1312.00,2592.63"/>
    <poly id="191862952" type="building" color="255,230,230" fill="1" layer="2.00" shape="1322.84,2516.33 1323.30,2509.65 1302.42,2508.23 1302.45,2507.80 1298.87,2507.56 1298.66,2510.73 1301.92,2510.95 1301.65,2514.90 1322.84,2516.33"/>
    <poly id="191862953" type="building" color="255,230,230" fill="1" layer="2.00" shape="1311.36,2602.19 1311.78,2595.71 1304.46,2595.32 1304.52,2592.47 1293.24,2591.94 1292.99,2595.05 1287.24,2589.89 1286.34,2603.02 1292.49,2603.45 1292.96,2597.44 1295.40,2597.51 1296.13,2598.49 1296.03,2601.07 1311.36,2602.19"/>
    <poly id="191862954" type="building" color="255,230,230" fill="1" layer="2.00" shape="1314.85,2605.55 1290.84,2603.87 1290.78,2604.72 1289.48,2604.63 1289.25,2607.67 1290.55,2607.76 1290.38,2610.00 1304.07,2611.23 1304.05,2612.14 1314.47,2612.71 1314.85,2605.55"/>
    <poly id="191862955" type="building" color="255,230,230" fill="1" layer="2.00" shape="1314.47,2612.71 1304.05,2612.14 1303.99,2613.35 1290.11,2612.11 1289.91,2614.43 1288.27,2614.40 1287.69,2623.00 1289.15,2623.04 1289.01,2626.73 1292.92,2626.87 1292.89,2628.04 1296.75,2628.19 1296.81,2627.21 1302.94,2627.74 1302.88,2628.86 1306.60,2629.01 1306.63,2628.06 1312.28,2628.38 1312.34,2627.32 1313.39,2627.39 1314.47,2612.71"/>
    <poly id="191862957" type="building" color="255,230,230" fill="1" layer="2.00" shape="1320.16,2509.17 1320.27,2507.04 1321.81,2507.05 1321.93,2502.17 1314.37,2501.62 1314.30,2500.61 1310.76,2500.50 1310.86,2501.26 1309.17,2501.17 1309.36,2497.36 1304.29,2497.12 1304.10,2500.93 1303.77,2501.26 1303.72,2504.28 1300.89,2504.23 1300.00,2503.36 1298.40,2503.24 1297.79,2503.89 1293.14,2503.69 1292.87,2507.13 1298.87,2507.56 1302.45,2507.80 1320.16,2509.17"/>
    <poly id="191862958" type="building" color="255,230,230" fill="1" layer="2.00" shape="1321.02,2498.15 1321.08,2495.87 1322.53,2494.85 1322.64,2493.10 1321.81,2492.09 1321.77,2491.21 1315.83,2490.94 1315.90,2488.83 1306.94,2488.49 1306.84,2491.10 1303.58,2490.98 1303.66,2488.87 1295.10,2488.55 1294.11,2489.07 1294.10,2490.56 1294.92,2491.10 1294.96,2492.14 1292.33,2492.05 1292.19,2495.74 1293.76,2495.89 1321.02,2498.15"/>
    <poly id="191862959" type="building" color="255,230,230" fill="1" layer="2.00" shape="1323.75,2529.25 1324.71,2517.40 1292.07,2514.76 1291.10,2526.62 1303.75,2527.64 1315.45,2528.58 1323.75,2529.25"/>
    <poly id="191862960" type="parking" color="184,184,179" fill="1" layer="-2.00" shape="1307.53,2479.79 1308.16,2468.33 1292.11,2467.45 1292.00,2469.54 1291.48,2478.92 1307.53,2479.79"/>
    <poly id="191862961" type="building" color="255,230,230" fill="1" layer="2.00" shape="1321.16,2530.07 1320.64,2537.80 1311.40,2537.18 1311.52,2535.51 1310.07,2535.41 1309.96,2537.08 1306.33,2536.83 1304.20,2536.69 1304.48,2532.43 1303.44,2532.37 1303.75,2527.64 1315.45,2528.58 1315.37,2529.68 1321.16,2530.07"/>
    <poly id="191862962" type="building" color="255,230,230" fill="1" layer="2.00" shape="1316.44,2576.90 1316.67,2572.67 1315.03,2572.60 1315.63,2566.40 1317.12,2566.50 1317.41,2559.50 1316.11,2559.41 1316.56,2551.61 1297.98,2550.40 1297.38,2557.82 1295.74,2557.87 1295.38,2564.70 1296.93,2564.71 1296.48,2571.24 1294.69,2571.12 1294.66,2575.36 1302.78,2576.04 1302.55,2578.45 1307.74,2578.69 1307.95,2576.45 1316.44,2576.90"/>
    <poly id="191862963" type="building" color="255,230,230" fill="1" layer="2.00" shape="1315.75,2549.15 1315.97,2545.84 1316.99,2544.87 1317.14,2543.10 1316.21,2542.16 1316.29,2540.99 1315.18,2540.90 1315.15,2541.33 1306.01,2540.55 1306.33,2536.83 1304.20,2536.69 1299.65,2536.43 1299.07,2542.71 1292.91,2542.35 1292.98,2546.62 1300.90,2547.21 1300.87,2548.13 1301.76,2549.10 1304.03,2549.14 1305.04,2548.37 1305.02,2547.53 1314.59,2548.24 1314.54,2549.06 1315.75,2549.15"/>
    <poly id="191862964" type="building" color="255,230,230" fill="1" layer="2.00" shape="1322.06,2489.07 1322.34,2481.69 1307.82,2481.14 1306.78,2481.10 1306.65,2484.48 1299.85,2484.23 1299.70,2488.21 1306.94,2488.49 1315.90,2488.83 1322.06,2489.07"/>
    <poly id="191862965" type="building" color="255,230,230" fill="1" layer="2.00" shape="1326.74,2481.87 1327.22,2469.65 1308.67,2468.95 1308.44,2474.91 1307.29,2474.87 1307.13,2478.97 1307.90,2479.00 1307.82,2481.14 1322.34,2481.69 1326.74,2481.87"/>
    <poly id="191866422" type="building" color="255,230,230" fill="1" layer="2.00" shape="1262.29,2623.71 1260.44,2623.49 1259.51,2623.83 1257.57,2623.79 1256.71,2622.97 1255.04,2622.91 1255.75,2612.84 1256.52,2603.90 1257.76,2603.99 1258.02,2601.05 1262.56,2601.37 1262.55,2604.48 1263.80,2604.64 1262.29,2623.71"/>
    <poly id="191866424" type="building" color="255,230,230" fill="1" layer="2.00" shape="1248.16,2622.32 1248.09,2623.00 1247.61,2623.01 1247.54,2624.24 1238.43,2623.48 1238.44,2622.28 1237.85,2622.26 1238.39,2615.80 1237.49,2615.77 1237.70,2611.46 1238.71,2611.52 1239.20,2606.28 1239.84,2606.26 1239.96,2603.10 1244.21,2603.24 1245.03,2603.29 1244.84,2605.97 1249.52,2606.35 1248.16,2622.32"/>
    <poly id="191866426" type="building" color="255,230,230" fill="1" layer="2.00" shape="1267.96,2624.83 1265.50,2624.76 1264.50,2623.76 1262.29,2623.71 1263.80,2604.64 1265.00,2604.64 1265.18,2601.73 1269.95,2602.12 1269.86,2605.11 1270.93,2605.17 1269.67,2624.27 1268.86,2624.18 1267.96,2624.83"/>
    <poly id="191866427" type="building" color="255,230,230" fill="1" layer="2.00" shape="1276.52,2623.09 1275.71,2623.07 1275.67,2624.19 1271.68,2623.97 1271.70,2624.43 1269.67,2624.27 1270.93,2605.17 1271.13,2602.05 1277.47,2602.56 1277.24,2606.73 1275.83,2606.72 1275.40,2614.47 1276.53,2614.51 1276.56,2621.93 1276.57,2622.53 1276.52,2623.09"/>
    <poly id="191866430" type="building" color="255,230,230" fill="1" layer="2.00" shape="1285.18,2624.33 1285.64,2615.24 1283.80,2615.04 1284.26,2609.12 1285.48,2609.21 1286.10,2601.16 1284.89,2601.06 1284.99,2599.72 1282.93,2599.63 1283.08,2595.72 1279.05,2595.57 1278.89,2599.47 1277.78,2614.55 1277.39,2614.53 1277.05,2622.56 1276.57,2622.53 1276.52,2623.09 1276.50,2623.91 1276.99,2623.93 1276.95,2624.73 1279.67,2624.87 1279.70,2624.06 1280.25,2624.09 1280.22,2624.68 1283.47,2624.83 1283.49,2624.25 1285.18,2624.33"/>
    <poly id="191866432" type="building" color="255,230,230" fill="1" layer="2.00" shape="1253.77,2622.79 1253.04,2622.81 1252.36,2623.57 1250.54,2623.51 1249.81,2622.33 1248.16,2622.32 1249.52,2606.35 1253.81,2606.67 1254.29,2602.40 1256.57,2602.66 1256.52,2603.90 1255.75,2612.84 1254.50,2612.78 1253.77,2622.79"/>
    <poly id="191869387" type="building" color="255,230,230" fill="1" layer="2.00" shape="1261.63,2481.45 1265.19,2481.70 1265.11,2482.88 1272.33,2483.38 1272.41,2482.26 1276.00,2482.52 1277.26,2464.73 1274.57,2464.55 1274.49,2465.64 1268.35,2465.21 1268.42,2464.29 1265.24,2464.06 1265.16,2465.03 1262.81,2464.86 1262.11,2474.76 1261.63,2481.45"/>
    <poly id="191869390" type="building" color="255,230,230" fill="1" layer="2.00" shape="1284.22,2506.15 1284.58,2499.69 1271.03,2498.64 1270.43,2499.13 1270.39,2503.39 1270.85,2503.71 1270.88,2504.70 1271.92,2504.71 1271.90,2504.42 1276.84,2504.66 1276.81,2505.60 1283.81,2506.13 1284.22,2506.15"/>
    <poly id="191869391" type="building" color="255,230,230" fill="1" layer="2.00" shape="1287.06,2467.24 1287.18,2465.32 1277.26,2464.73 1276.00,2482.52 1276.00,2483.92 1278.93,2484.11 1278.85,2485.34 1282.83,2485.60 1282.92,2484.37 1285.91,2484.55 1287.06,2467.24"/>
    <poly id="191869745" type="building" color="255,230,230" fill="1" layer="2.00" shape="1267.40,2543.62 1267.79,2538.72 1263.03,2538.36 1263.14,2536.92 1253.27,2535.99 1253.21,2536.81 1248.62,2536.46 1248.57,2537.08 1247.57,2537.01 1247.16,2542.20 1252.66,2542.62 1252.59,2543.52 1257.38,2543.89 1257.46,2542.85 1267.40,2543.62"/>
    <poly id="191869747" type="building" color="255,230,230" fill="1" layer="2.00" shape="1243.95,2583.53 1244.99,2583.52 1245.04,2582.60 1248.71,2582.82 1248.74,2583.94 1256.27,2584.40 1258.34,2584.58 1261.59,2584.85 1261.78,2579.22 1258.74,2578.94 1245.44,2577.94 1245.44,2577.09 1244.47,2577.07 1244.41,2579.74 1243.60,2580.15 1243.59,2581.51 1244.02,2581.99 1243.95,2583.53"/>
    <poly id="191869748" type="building" color="255,230,230" fill="1" layer="2.00" shape="1239.38,2603.10 1239.96,2603.10 1244.21,2603.24 1244.21,2602.84 1247.24,2603.07 1247.24,2603.64 1249.78,2603.84 1249.94,2600.59 1252.55,2600.80 1252.76,2595.86 1250.36,2595.73 1250.66,2592.40 1244.09,2591.69 1243.19,2591.61 1240.36,2591.47 1239.38,2603.10"/>
    <poly id="191869749" type="building" color="255,230,230" fill="1" layer="2.00" shape="1246.64,2552.21 1251.53,2552.55 1251.51,2552.92 1264.19,2553.56 1264.22,2551.46 1265.94,2551.50 1266.44,2546.25 1264.73,2546.09 1264.77,2545.52 1258.80,2545.01 1258.83,2544.00 1257.38,2543.89 1252.59,2543.52 1252.45,2543.52 1252.44,2546.48 1251.60,2546.48 1250.82,2545.34 1249.63,2545.39 1248.97,2546.14 1247.98,2546.11 1247.98,2545.72 1246.97,2545.73 1246.96,2546.17 1246.03,2546.84 1245.92,2548.98 1246.70,2549.88 1246.64,2552.21"/>
    <poly id="191869750" type="building" color="255,230,230" fill="1" layer="2.00" shape="1249.89,2503.42 1262.22,2504.45 1262.24,2503.96 1265.76,2504.06 1266.13,2498.09 1250.34,2496.63 1250.30,2497.79 1249.80,2498.09 1249.42,2498.67 1249.10,2499.46 1248.90,2500.15 1248.98,2501.03 1249.28,2501.90 1249.51,2502.26 1249.91,2502.46 1249.89,2503.42"/>
    <poly id="191869751" type="building" color="255,230,230" fill="1" layer="2.00" shape="1244.68,2576.19 1253.71,2576.71 1253.67,2577.26 1258.52,2577.45 1258.47,2576.21 1266.10,2576.72 1266.36,2572.71 1264.69,2572.67 1264.61,2571.78 1258.96,2571.39 1259.00,2569.99 1245.21,2568.96 1244.80,2568.98 1244.81,2571.80 1243.90,2571.77 1243.79,2575.17 1244.70,2575.19 1244.68,2576.19"/>
    <poly id="191869752" type="building" color="255,230,230" fill="1" layer="2.00" shape="1243.19,2591.61 1244.09,2591.69 1244.11,2591.40 1256.82,2592.56 1257.33,2587.41 1257.91,2587.44 1258.00,2585.20 1258.31,2585.21 1258.34,2584.58 1256.27,2584.40 1256.26,2584.90 1255.12,2584.84 1255.11,2585.22 1243.86,2584.25 1243.69,2586.54 1242.69,2587.42 1242.52,2588.91 1243.36,2589.74 1243.19,2591.61"/>
    <poly id="191869753" type="building" color="255,230,230" fill="1" layer="2.00" shape="1269.30,2537.53 1270.09,2529.30 1259.73,2528.46 1259.64,2530.01 1248.29,2529.09 1247.80,2533.48 1248.77,2533.62 1248.79,2535.55 1253.27,2535.99 1263.14,2536.92 1269.30,2537.53"/>
    <poly id="191869754" type="building" color="255,230,230" fill="1" layer="2.00" shape="1251.03,2489.01 1251.15,2486.97 1251.86,2486.43 1249.57,2486.22 1249.70,2484.45 1257.12,2485.00 1257.87,2484.32 1260.30,2484.50 1261.39,2484.57 1262.11,2485.37 1263.68,2485.48 1263.74,2484.74 1275.21,2485.59 1275.06,2487.73 1275.66,2487.78 1275.58,2488.84 1274.98,2488.79 1269.93,2488.43 1270.01,2487.35 1268.26,2487.23 1267.89,2492.12 1263.65,2491.81 1263.72,2490.91 1260.89,2490.70 1260.56,2491.36 1257.19,2491.18 1256.55,2490.43 1251.90,2490.27 1251.03,2489.01"/>
    <poly id="192117997" type="building" color="255,230,230" fill="1" layer="2.00" shape="1278.07,2644.55 1287.90,2645.22 1287.03,2658.00 1286.99,2658.54 1282.57,2658.23 1282.83,2654.52 1277.42,2654.15 1278.07,2644.55"/>
    <poly id="192119077" type="leisure" color="207,245,201" fill="1" layer="0.00" shape="1295.72,2786.40 1301.68,2706.81 1256.02,2703.41 1250.06,2783.00 1295.72,2786.40"/>
    <poly id="192119078" type="amenity" color="237,199,199" fill="1" layer="2.00" shape="1297.55,2804.16 1305.19,2706.67 1232.17,2700.98 1225.53,2798.35 1290.24,2803.74 1297.55,2804.16"/>
    <poly id="192120079" type="building" color="255,230,230" fill="1" layer="2.00" shape="1254.91,2651.56 1258.86,2651.82 1258.71,2654.11 1260.90,2654.25 1260.85,2654.96 1263.61,2655.13 1264.38,2643.29 1264.47,2641.87 1255.54,2641.29 1255.23,2646.07 1253.90,2645.98 1253.78,2647.94 1255.14,2648.02 1254.91,2651.56"/>
    <poly id="192123449" type="amenity" color="237,199,199" fill="1" layer="2.00" shape="1421.84,2720.37 1424.23,2677.01 1425.88,2655.92 1389.12,2652.93 1386.14,2690.97 1385.32,2717.60 1421.84,2720.37"/>
    <poly id="192123450" type="amenity" color="237,199,199" fill="1" layer="2.00" shape="1532.61,2451.29 1532.57,2451.83 1509.84,2450.27 1510.20,2444.97 1484.80,2443.24 1485.94,2426.70 1463.35,2425.15 1460.84,2461.61 1536.77,2466.81 1537.82,2451.64 1532.61,2451.29"/>
    <poly id="192123450#1" type="building" color="255,230,230" fill="1" layer="2.00" shape="1532.61,2451.29 1532.57,2451.83 1509.84,2450.27 1510.20,2444.97 1484.80,2443.24 1485.94,2426.70 1463.35,2425.15 1460.84,2461.61 1536.77,2466.81 1537.82,2451.64 1532.61,2451.29"/>
    <poly id="192123451" type="building" color="255,230,230" fill="1" layer="2.00" shape="1463.87,2423.48 1482.64,2424.86 1484.95,2393.55 1466.60,2392.21 1466.33,2395.78 1464.79,2395.66 1463.00,2419.80 1464.14,2419.89 1463.87,2423.48"/>
    <poly id="192123600" type="amenity" color="237,199,199" fill="1" layer="2.00" shape="1518.03,2684.64 1518.27,2680.75 1518.51,2676.95 1518.92,2670.36 1519.48,2670.39 1519.79,2665.44 1502.32,2664.35 1502.38,2663.27 1490.92,2662.56 1490.96,2661.99 1483.68,2661.53 1483.20,2669.26 1482.94,2669.24 1481.84,2686.86 1490.29,2687.40 1490.69,2687.40 1490.78,2685.84 1500.27,2686.42 1500.44,2683.56 1518.03,2684.64"/>
    <poly id="192123600#1" type="building" color="255,230,230" fill="1" layer="2.00" shape="1518.03,2684.64 1518.27,2680.75 1518.51,2676.95 1518.92,2670.36 1519.48,2670.39 1519.79,2665.44 1502.32,2664.35 1502.38,2663.27 1490.92,2662.56 1490.96,2661.99 1483.68,2661.53 1483.20,2669.26 1482.94,2669.24 1481.84,2686.86 1490.29,2687.40 1490.69,2687.40 1490.78,2685.84 1500.27,2686.42 1500.44,2683.56 1518.03,2684.64"/>
    <poly id="192123696" type="amenity" color="237,199,199" fill="1" layer="2.00" shape="1758.37,2466.55 1793.67,2469.62 1796.79,2434.49 1766.08,2431.84 1761.44,2431.45 1758.37,2466.55"/>
    <poly id="192123864" type="amenity" color="237,199,199" fill="1" layer="2.00" shape="1830.12,2490.93 1799.93,2488.49 1801.34,2471.07 1805.24,2471.39 1805.13,2472.69 1810.23,2473.10 1810.49,2469.95 1819.04,2470.63 1818.78,2473.79 1827.30,2474.48 1827.41,2473.20 1831.53,2473.53 1830.75,2483.16 1830.12,2490.93"/>
    <poly id="192123864#1" type="building" color="255,230,230" fill="1" layer="2.00" shape="1830.12,2490.93 1799.93,2488.49 1801.34,2471.07 1805.24,2471.39 1805.13,2472.69 1810.23,2473.10 1810.49,2469.95 1819.04,2470.63 1818.78,2473.79 1827.30,2474.48 1827.41,2473.20 1831.53,2473.53 1830.75,2483.16 1830.12,2490.93"/>
    <poly id="192390278" type="building" color="255,230,230" fill="1" layer="2.00" shape="1225.53,2798.35 1232.77,2711.43 1254.74,2713.16 1248.14,2794.38 1253.39,2794.80 1254.38,2783.85 1291.55,2786.79 1291.41,2788.39 1294.28,2788.62 1293.23,2801.85 1290.49,2801.63 1290.24,2803.74 1225.53,2798.35"/>
    <poly id="192391149" type="building" color="255,230,230" fill="1" layer="2.00" shape="1398.25,2691.91 1399.46,2676.41 1391.25,2675.77 1391.35,2674.52 1394.93,2674.80 1424.23,2677.01 1425.88,2655.92 1418.11,2655.31 1418.05,2656.05 1396.80,2654.39 1396.86,2653.53 1389.12,2652.93 1386.14,2690.97 1398.25,2691.91"/>
    <poly id="194906343" type="building" color="255,230,230" fill="1" layer="2.00" shape="823.03,2458.78 862.29,2462.02 859.60,2494.58 849.29,2493.73 844.10,2498.33 832.24,2497.26 828.14,2491.99 820.33,2491.35 823.03,2458.78"/>
    <poly id="194906343#1" type="shop" color="237,199,255" fill="1" layer="2.00" shape="823.03,2458.78 862.29,2462.02 859.60,2494.58 849.29,2493.73 844.10,2498.33 832.24,2497.26 828.14,2491.99 820.33,2491.35 823.03,2458.78"/>
    <poly id="194907013" type="building" color="255,230,230" fill="1" layer="2.00" shape="770.42,2379.68 771.13,2369.23 772.89,2369.35 779.79,2369.81 781.04,2369.90 780.96,2371.00 783.48,2371.17 783.56,2370.07 786.88,2370.30 786.80,2371.38 793.25,2371.81 792.67,2380.34 786.07,2379.90 786.02,2380.72 782.48,2380.48 782.55,2379.52 780.18,2379.36 780.12,2380.32 770.42,2379.68"/>
    <poly id="194907015" type="building" color="255,230,230" fill="1" layer="2.00" shape="783.87,2424.77 783.53,2428.84 779.37,2428.47 779.06,2431.93 783.24,2432.30 782.71,2438.77 766.94,2437.36 767.00,2436.77 766.32,2436.05 766.58,2433.36 767.36,2432.81 767.42,2432.00 766.68,2431.19 766.95,2428.41 767.78,2428.03 767.85,2427.30 767.03,2426.41 767.30,2423.92 769.03,2422.24 771.52,2422.43 772.05,2423.47 772.64,2423.55 772.95,2422.83 774.69,2422.98 774.72,2422.72 777.60,2422.97 777.57,2423.28 778.92,2423.41 779.27,2424.38 779.95,2424.44 780.81,2423.51 782.56,2423.70 783.05,2424.70 783.87,2424.77"/>
    <poly id="197055407" type="building" color="255,230,230" fill="1" layer="2.00" shape="2212.45,2847.13 2214.26,2822.25 2216.23,2822.26 2219.96,2775.61 2217.68,2775.50 2218.38,2766.47 2242.84,2768.16 2242.40,2777.85 2239.92,2777.60 2236.19,2821.79 2240.81,2822.10 2240.46,2825.74 2263.38,2827.49 2263.75,2821.57 2273.98,2822.27 2274.65,2823.50 2274.59,2826.27 2276.76,2826.46 2275.11,2846.78 2273.63,2846.74 2273.28,2848.91 2271.94,2850.51 2266.15,2850.13 2266.12,2850.66 2239.05,2848.59 2239.31,2845.50 2236.17,2845.36 2235.82,2849.18 2212.45,2847.13"/>
    <poly id="222822105" type="tourism" color="207,245,201" fill="1" layer="-10.00" shape="1987.78,1823.18 1962.30,1875.27 1960.99,1875.96 1959.71,1875.61 1958.84,1874.23 1963.93,1833.28 1964.45,1832.07 1965.54,1831.10 1985.99,1820.96 1987.32,1821.65 1987.78,1823.18"/>
    <poly id="225059673" type="amenity" color="237,199,199" fill="1" layer="2.00" shape="2397.86,1777.86 2432.71,1779.84 2433.85,1766.67 2465.86,1769.34 2465.60,1772.99 2463.11,1772.97 2463.08,1778.85 2464.62,1778.86 2461.07,1815.79 2422.91,1814.61 2423.89,1791.90 2396.96,1790.32 2397.86,1777.86"/>
    <poly id="230248033" type="parking" color="184,184,179" fill="1" layer="-2.00" shape="1642.38,1960.22 1634.51,2028.99 1676.87,2033.35 1682.93,1978.60 1678.50,1963.49 1642.38,1960.22"/>
    <poly id="231047897" type="amenity" color="237,199,199" fill="1" layer="2.00" shape="1981.91,2487.08 1981.21,2496.26 1986.29,2496.65 1985.70,2504.41 1969.65,2503.20 1969.70,2502.54 1951.94,2501.21 1953.18,2484.93 1981.91,2487.08"/>
    <poly id="231047897#1" type="building" color="255,230,230" fill="1" layer="2.00" shape="1981.91,2487.08 1981.21,2496.26 1986.29,2496.65 1985.70,2504.41 1969.65,2503.20 1969.70,2502.54 1951.94,2501.21 1953.18,2484.93 1981.91,2487.08"/>
    <poly id="237549243" type="building" color="255,230,230" fill="1" layer="2.00" shape="2066.53,2239.89 2078.43,2240.86 2079.05,2233.46 2067.15,2232.48 2066.53,2239.89"/>
    <poly id="237549244" type="building" color="255,230,230" fill="1" layer="2.00" shape="2058.93,2331.72 2095.10,2334.69 2098.24,2296.66 2062.08,2293.70 2058.93,2331.72"/>
    <poly id="237549245" type="building" color="255,230,230" fill="1" layer="2.00" shape="2068.83,2212.07 2088.10,2213.65 2088.63,2207.17 2069.37,2205.59 2068.83,2212.07"/>
    <poly id="237549246" type="building" color="255,230,230" fill="1" layer="2.00" shape="2067.97,2222.56 2088.30,2224.23 2088.75,2218.77 2083.08,2218.30 2068.41,2217.10 2067.97,2222.56"/>
    <poly id="237549247" type="building" color="255,230,230" fill="1" layer="2.00" shape="2081.09,2174.49 2080.00,2187.81 2087.52,2188.43 2088.61,2175.10 2081.09,2174.49"/>
    <poly id="237549251" type="building" color="255,230,230" fill="1" layer="2.00" shape="2065.59,2251.30 2080.89,2252.56 2081.72,2242.58 2066.41,2241.33 2065.59,2251.30"/>
    <poly id="237549252" type="building" color="255,230,230" fill="1" layer="2.00" shape="2088.61,2175.10 2090.13,2175.22 2090.25,2173.71 2088.74,2173.59 2088.61,2175.10"/>
    <poly id="237549255" type="building" color="255,230,230" fill="1" layer="2.00" shape="2070.76,2201.61 2089.05,2203.11 2089.76,2194.48 2071.47,2192.98 2070.76,2201.61"/>
    <poly id="237549258" type="building" color="255,230,230" fill="1" layer="2.00" shape="2063.98,2270.74 2099.53,2273.66 2101.14,2254.22 2080.89,2252.56 2065.59,2251.30 2063.98,2270.74"/>
    <poly id="237549259" type="building" color="255,230,230" fill="1" layer="2.00" shape="2071.94,2173.73 2070.73,2188.41 2079.88,2189.16 2080.00,2187.81 2081.09,2174.49 2071.94,2173.73"/>
    <poly id="237549260" type="building" color="255,230,230" fill="1" layer="2.00" shape="2101.23,2176.13 2100.50,2185.09 2099.92,2192.05 2106.08,2192.55 2107.40,2176.65 2101.23,2176.13"/>
    <poly id="237549263" type="building" color="255,230,230" fill="1" layer="2.00" shape="2068.41,2217.10 2083.08,2218.30 2083.35,2214.98 2073.60,2214.18 2073.74,2212.48 2068.83,2212.07 2068.41,2217.10"/>
    <poly id="237549266" type="building" color="255,230,230" fill="1" layer="2.00" shape="2090.13,2175.22 2088.79,2191.30 2093.49,2191.68 2094.08,2184.55 2094.88,2184.61 2095.62,2175.68 2090.13,2175.22"/>
    <poly id="237549270" type="building" color="255,230,230" fill="1" layer="2.00" shape="2067.15,2232.48 2079.05,2233.46 2089.60,2234.32 2090.35,2225.23 2075.06,2223.98 2075.13,2223.15 2067.97,2222.56 2067.15,2232.48"/>
    <poly id="237549272" type="building" color="255,230,230" fill="1" layer="2.00" shape="2095.62,2175.68 2094.88,2184.61 2094.29,2191.72 2099.15,2192.13 2099.74,2185.03 2100.50,2185.09 2101.23,2176.13 2095.62,2175.68"/>
    <poly id="23908184" type="tourism" color="207,245,201" fill="1" layer="-10.00" shape="2385.03,1914.14 2620.13,1932.51 2625.28,1948.78 2632.74,1965.39 2542.85,1957.52 2382.57,1943.49 2385.03,1914.14"/>
    <poly id="241003350" type="building" color="255,230,230" fill="1" layer="2.00" shape="1969.73,2253.22 1970.34,2245.62 2004.10,2248.29 2003.49,2255.91 1969.73,2253.22"/>
    <poly id="24253472" type="tourism" color="207,245,201" fill="1" layer="-10.00" shape="2440.71,2365.98 2523.88,2372.06 2535.96,2208.00 2452.80,2201.92 2440.71,2365.98"/>
    <poly id="253384707" type="building" color="255,230,230" fill="1" layer="2.00" shape="1964.97,2325.03 1965.77,2316.48 1990.70,2318.80 1990.36,2322.31 1991.46,2322.42 1990.98,2327.44 1964.97,2325.03"/>
    <poly id="255966171" type="building" color="255,230,230" fill="1" layer="2.00" shape="1555.06,2678.90 1551.24,2678.61 1551.33,2677.45 1556.29,2677.83 1556.11,2680.18 1558.72,2680.39 1559.68,2667.98 1559.77,2666.74 1559.18,2666.70 1558.63,2665.77 1556.29,2665.70 1555.96,2666.45 1547.15,2665.77 1546.49,2664.90 1544.43,2664.71 1543.19,2665.94 1543.06,2667.81 1543.71,2668.58 1543.26,2675.73 1542.52,2676.13 1542.42,2678.51 1543.07,2679.09 1542.73,2684.10 1541.78,2684.49 1541.66,2686.79 1542.34,2687.41 1541.63,2695.00 1540.89,2695.42 1540.91,2697.82 1541.20,2698.79 1553.63,2699.74 1553.99,2695.14 1556.50,2695.33 1556.94,2689.65 1554.32,2689.46 1554.58,2686.17 1557.17,2686.37 1557.43,2683.00 1554.77,2682.80 1555.06,2678.90"/>